*SPEF "IEEE 1481-1999"
*DESIGN "rob"
*DATE "Thu Jun  8 15:06:31 2023"
*VENDOR "SYNOPSYS INC"
*PROGRAM "Synopsys Design Compiler cmos"
*VERSION "T-2022.03-SP3"
*DESIGN_FLOW "SYNTHESIS"
*DIVIDER /
*DELIMITER :
*BUS_DELIMITER []
*T_UNIT 1.0 NS
*C_UNIT 0.0010 PF
*R_UNIT 1000.0 KOHM
*L_UNIT 1.0 HENRY

*PORTS

clk_i I *L 0.000e+00 *S 8.671e+03 8.671e+03 
reset_i I *L 0.000e+00 *S 0.000e+00 0.000e+00 
allocate_req_i I *L 0.000e+00 *S 2.372e-01 2.372e-01 
update_req_alu_i I *L 0.000e+00 *S 6.097e-01 6.097e-01 
update_req_lsu_i I *L 0.000e+00 *S 2.638e-01 2.638e-01 
update_req_mul_i I *L 0.000e+00 *S 3.733e-01 3.733e-01 
prd_addr_i\[4\] I *L 0.000e+00 *S 1.625e-02 1.625e-02 
prd_addr_i\[3\] I *L 0.000e+00 *S 1.625e-02 1.625e-02 
prd_addr_i\[2\] I *L 0.000e+00 *S 1.625e-02 1.625e-02 
prd_addr_i\[1\] I *L 0.000e+00 *S 1.625e-02 1.625e-02 
prd_addr_i\[0\] I *L 0.000e+00 *S 1.625e-02 1.625e-02 
pc_i\[31\] I *L 0.000e+00 *S 1.664e-02 1.664e-02 
pc_i\[30\] I *L 0.000e+00 *S 1.664e-02 1.664e-02 
pc_i\[29\] I *L 0.000e+00 *S 1.664e-02 1.664e-02 
pc_i\[28\] I *L 0.000e+00 *S 1.664e-02 1.664e-02 
pc_i\[27\] I *L 0.000e+00 *S 1.664e-02 1.664e-02 
pc_i\[26\] I *L 0.000e+00 *S 1.664e-02 1.664e-02 
pc_i\[25\] I *L 0.000e+00 *S 1.664e-02 1.664e-02 
pc_i\[24\] I *L 0.000e+00 *S 1.664e-02 1.664e-02 
pc_i\[23\] I *L 0.000e+00 *S 1.664e-02 1.664e-02 
pc_i\[22\] I *L 0.000e+00 *S 1.664e-02 1.664e-02 
pc_i\[21\] I *L 0.000e+00 *S 1.664e-02 1.664e-02 
pc_i\[20\] I *L 0.000e+00 *S 1.664e-02 1.664e-02 
pc_i\[19\] I *L 0.000e+00 *S 1.664e-02 1.664e-02 
pc_i\[18\] I *L 0.000e+00 *S 1.664e-02 1.664e-02 
pc_i\[17\] I *L 0.000e+00 *S 1.664e-02 1.664e-02 
pc_i\[16\] I *L 0.000e+00 *S 1.664e-02 1.664e-02 
pc_i\[15\] I *L 0.000e+00 *S 1.664e-02 1.664e-02 
pc_i\[14\] I *L 0.000e+00 *S 1.664e-02 1.664e-02 
pc_i\[13\] I *L 0.000e+00 *S 1.664e-02 1.664e-02 
pc_i\[12\] I *L 0.000e+00 *S 1.664e-02 1.664e-02 
pc_i\[11\] I *L 0.000e+00 *S 1.664e-02 1.664e-02 
pc_i\[10\] I *L 0.000e+00 *S 1.664e-02 1.664e-02 
pc_i\[9\] I *L 0.000e+00 *S 1.664e-02 1.664e-02 
pc_i\[8\] I *L 0.000e+00 *S 1.664e-02 1.664e-02 
pc_i\[7\] I *L 0.000e+00 *S 1.664e-02 1.664e-02 
pc_i\[6\] I *L 0.000e+00 *S 1.664e-02 1.664e-02 
pc_i\[5\] I *L 0.000e+00 *S 1.664e-02 1.664e-02 
pc_i\[4\] I *L 0.000e+00 *S 1.664e-02 1.664e-02 
pc_i\[3\] I *L 0.000e+00 *S 1.664e-02 1.664e-02 
pc_i\[2\] I *L 0.000e+00 *S 1.664e-02 1.664e-02 
pc_i\[1\] I *L 0.000e+00 *S 1.664e-02 1.664e-02 
pc_i\[0\] I *L 0.000e+00 *S 1.664e-02 1.664e-02 
inst_i\[31\] I *L 0.000e+00 *S 1.664e-02 1.664e-02 
inst_i\[30\] I *L 0.000e+00 *S 1.664e-02 1.664e-02 
inst_i\[29\] I *L 0.000e+00 *S 1.664e-02 1.664e-02 
inst_i\[28\] I *L 0.000e+00 *S 1.664e-02 1.664e-02 
inst_i\[27\] I *L 0.000e+00 *S 1.664e-02 1.664e-02 
inst_i\[26\] I *L 0.000e+00 *S 1.664e-02 1.664e-02 
inst_i\[25\] I *L 0.000e+00 *S 1.664e-02 1.664e-02 
inst_i\[24\] I *L 0.000e+00 *S 1.664e-02 1.664e-02 
inst_i\[23\] I *L 0.000e+00 *S 1.664e-02 1.664e-02 
inst_i\[22\] I *L 0.000e+00 *S 1.664e-02 1.664e-02 
inst_i\[21\] I *L 0.000e+00 *S 1.664e-02 1.664e-02 
inst_i\[20\] I *L 0.000e+00 *S 1.664e-02 1.664e-02 
inst_i\[19\] I *L 0.000e+00 *S 1.664e-02 1.664e-02 
inst_i\[18\] I *L 0.000e+00 *S 1.664e-02 1.664e-02 
inst_i\[17\] I *L 0.000e+00 *S 1.664e-02 1.664e-02 
inst_i\[16\] I *L 0.000e+00 *S 1.664e-02 1.664e-02 
inst_i\[15\] I *L 0.000e+00 *S 1.664e-02 1.664e-02 
inst_i\[14\] I *L 0.000e+00 *S 1.664e-02 1.664e-02 
inst_i\[13\] I *L 0.000e+00 *S 1.664e-02 1.664e-02 
inst_i\[12\] I *L 0.000e+00 *S 1.664e-02 1.664e-02 
inst_i\[11\] I *L 0.000e+00 *S 1.664e-02 1.664e-02 
inst_i\[10\] I *L 0.000e+00 *S 1.664e-02 1.664e-02 
inst_i\[9\] I *L 0.000e+00 *S 1.664e-02 1.664e-02 
inst_i\[8\] I *L 0.000e+00 *S 1.664e-02 1.664e-02 
inst_i\[7\] I *L 0.000e+00 *S 1.664e-02 1.664e-02 
inst_i\[6\] I *L 0.000e+00 *S 1.664e-02 1.664e-02 
inst_i\[5\] I *L 0.000e+00 *S 1.664e-02 1.664e-02 
inst_i\[4\] I *L 0.000e+00 *S 1.664e-02 1.664e-02 
inst_i\[3\] I *L 0.000e+00 *S 1.664e-02 1.664e-02 
inst_i\[2\] I *L 0.000e+00 *S 1.664e-02 1.664e-02 
inst_i\[1\] I *L 0.000e+00 *S 1.664e-02 1.664e-02 
inst_i\[0\] I *L 0.000e+00 *S 1.664e-02 1.664e-02 
rob_idx_alu_i\[4\] I *L 0.000e+00 *S 1.021e-01 1.021e-01 
rob_idx_alu_i\[3\] I *L 0.000e+00 *S 1.540e-01 1.540e-01 
rob_idx_alu_i\[2\] I *L 0.000e+00 *S 6.609e-02 6.609e-02 
rob_idx_alu_i\[1\] I *L 0.000e+00 *S 5.193e-02 5.193e-02 
rob_idx_alu_i\[0\] I *L 0.000e+00 *S 6.967e-02 6.967e-02 
reg_value_alu_i\[31\] I *L 0.000e+00 *S 1.662e-02 1.662e-02 
reg_value_alu_i\[30\] I *L 0.000e+00 *S 1.662e-02 1.662e-02 
reg_value_alu_i\[29\] I *L 0.000e+00 *S 1.662e-02 1.662e-02 
reg_value_alu_i\[28\] I *L 0.000e+00 *S 1.662e-02 1.662e-02 
reg_value_alu_i\[27\] I *L 0.000e+00 *S 1.662e-02 1.662e-02 
reg_value_alu_i\[26\] I *L 0.000e+00 *S 1.662e-02 1.662e-02 
reg_value_alu_i\[25\] I *L 0.000e+00 *S 1.662e-02 1.662e-02 
reg_value_alu_i\[24\] I *L 0.000e+00 *S 1.662e-02 1.662e-02 
reg_value_alu_i\[23\] I *L 0.000e+00 *S 1.662e-02 1.662e-02 
reg_value_alu_i\[22\] I *L 0.000e+00 *S 1.662e-02 1.662e-02 
reg_value_alu_i\[21\] I *L 0.000e+00 *S 1.662e-02 1.662e-02 
reg_value_alu_i\[20\] I *L 0.000e+00 *S 1.662e-02 1.662e-02 
reg_value_alu_i\[19\] I *L 0.000e+00 *S 1.662e-02 1.662e-02 
reg_value_alu_i\[18\] I *L 0.000e+00 *S 1.662e-02 1.662e-02 
reg_value_alu_i\[17\] I *L 0.000e+00 *S 1.662e-02 1.662e-02 
reg_value_alu_i\[16\] I *L 0.000e+00 *S 1.662e-02 1.662e-02 
reg_value_alu_i\[15\] I *L 0.000e+00 *S 1.662e-02 1.662e-02 
reg_value_alu_i\[14\] I *L 0.000e+00 *S 1.662e-02 1.662e-02 
reg_value_alu_i\[13\] I *L 0.000e+00 *S 1.662e-02 1.662e-02 
reg_value_alu_i\[12\] I *L 0.000e+00 *S 1.662e-02 1.662e-02 
reg_value_alu_i\[11\] I *L 0.000e+00 *S 1.662e-02 1.662e-02 
reg_value_alu_i\[10\] I *L 0.000e+00 *S 1.662e-02 1.662e-02 
reg_value_alu_i\[9\] I *L 0.000e+00 *S 1.662e-02 1.662e-02 
reg_value_alu_i\[8\] I *L 0.000e+00 *S 1.662e-02 1.662e-02 
reg_value_alu_i\[7\] I *L 0.000e+00 *S 1.662e-02 1.662e-02 
reg_value_alu_i\[6\] I *L 0.000e+00 *S 1.662e-02 1.662e-02 
reg_value_alu_i\[5\] I *L 0.000e+00 *S 1.662e-02 1.662e-02 
reg_value_alu_i\[4\] I *L 0.000e+00 *S 1.662e-02 1.662e-02 
reg_value_alu_i\[3\] I *L 0.000e+00 *S 1.662e-02 1.662e-02 
reg_value_alu_i\[2\] I *L 0.000e+00 *S 1.662e-02 1.662e-02 
reg_value_alu_i\[1\] I *L 0.000e+00 *S 1.662e-02 1.662e-02 
reg_value_alu_i\[0\] I *L 0.000e+00 *S 1.662e-02 1.662e-02 
rob_idx_lsu_i\[4\] I *L 0.000e+00 *S 5.129e-02 5.129e-02 
rob_idx_lsu_i\[3\] I *L 0.000e+00 *S 5.168e-02 5.168e-02 
rob_idx_lsu_i\[2\] I *L 0.000e+00 *S 1.059e-01 1.059e-01 
rob_idx_lsu_i\[1\] I *L 0.000e+00 *S 1.059e-01 1.059e-01 
rob_idx_lsu_i\[0\] I *L 0.000e+00 *S 8.713e-02 8.713e-02 
reg_value_lsu_i\[31\] I *L 0.000e+00 *S 1.677e-02 1.677e-02 
reg_value_lsu_i\[30\] I *L 0.000e+00 *S 1.677e-02 1.677e-02 
reg_value_lsu_i\[29\] I *L 0.000e+00 *S 1.677e-02 1.677e-02 
reg_value_lsu_i\[28\] I *L 0.000e+00 *S 1.677e-02 1.677e-02 
reg_value_lsu_i\[27\] I *L 0.000e+00 *S 1.677e-02 1.677e-02 
reg_value_lsu_i\[26\] I *L 0.000e+00 *S 1.677e-02 1.677e-02 
reg_value_lsu_i\[25\] I *L 0.000e+00 *S 1.677e-02 1.677e-02 
reg_value_lsu_i\[24\] I *L 0.000e+00 *S 1.677e-02 1.677e-02 
reg_value_lsu_i\[23\] I *L 0.000e+00 *S 1.677e-02 1.677e-02 
reg_value_lsu_i\[22\] I *L 0.000e+00 *S 1.677e-02 1.677e-02 
reg_value_lsu_i\[21\] I *L 0.000e+00 *S 1.677e-02 1.677e-02 
reg_value_lsu_i\[20\] I *L 0.000e+00 *S 1.677e-02 1.677e-02 
reg_value_lsu_i\[19\] I *L 0.000e+00 *S 1.677e-02 1.677e-02 
reg_value_lsu_i\[18\] I *L 0.000e+00 *S 1.677e-02 1.677e-02 
reg_value_lsu_i\[17\] I *L 0.000e+00 *S 1.677e-02 1.677e-02 
reg_value_lsu_i\[16\] I *L 0.000e+00 *S 1.677e-02 1.677e-02 
reg_value_lsu_i\[15\] I *L 0.000e+00 *S 1.677e-02 1.677e-02 
reg_value_lsu_i\[14\] I *L 0.000e+00 *S 1.677e-02 1.677e-02 
reg_value_lsu_i\[13\] I *L 0.000e+00 *S 1.677e-02 1.677e-02 
reg_value_lsu_i\[12\] I *L 0.000e+00 *S 1.677e-02 1.677e-02 
reg_value_lsu_i\[11\] I *L 0.000e+00 *S 1.677e-02 1.677e-02 
reg_value_lsu_i\[10\] I *L 0.000e+00 *S 1.677e-02 1.677e-02 
reg_value_lsu_i\[9\] I *L 0.000e+00 *S 1.677e-02 1.677e-02 
reg_value_lsu_i\[8\] I *L 0.000e+00 *S 1.677e-02 1.677e-02 
reg_value_lsu_i\[7\] I *L 0.000e+00 *S 1.677e-02 1.677e-02 
reg_value_lsu_i\[6\] I *L 0.000e+00 *S 1.677e-02 1.677e-02 
reg_value_lsu_i\[5\] I *L 0.000e+00 *S 1.677e-02 1.677e-02 
reg_value_lsu_i\[4\] I *L 0.000e+00 *S 1.677e-02 1.677e-02 
reg_value_lsu_i\[3\] I *L 0.000e+00 *S 1.677e-02 1.677e-02 
reg_value_lsu_i\[2\] I *L 0.000e+00 *S 1.677e-02 1.677e-02 
reg_value_lsu_i\[1\] I *L 0.000e+00 *S 1.677e-02 1.677e-02 
reg_value_lsu_i\[0\] I *L 0.000e+00 *S 1.677e-02 1.677e-02 
rob_idx_mul_i\[4\] I *L 0.000e+00 *S 5.168e-02 5.168e-02 
rob_idx_mul_i\[3\] I *L 0.000e+00 *S 5.129e-02 5.129e-02 
rob_idx_mul_i\[2\] I *L 0.000e+00 *S 1.059e-01 1.059e-01 
rob_idx_mul_i\[1\] I *L 0.000e+00 *S 1.059e-01 1.059e-01 
rob_idx_mul_i\[0\] I *L 0.000e+00 *S 8.713e-02 8.713e-02 
reg_value_mul_i\[31\] I *L 0.000e+00 *S 1.677e-02 1.677e-02 
reg_value_mul_i\[30\] I *L 0.000e+00 *S 1.677e-02 1.677e-02 
reg_value_mul_i\[29\] I *L 0.000e+00 *S 1.677e-02 1.677e-02 
reg_value_mul_i\[28\] I *L 0.000e+00 *S 1.677e-02 1.677e-02 
reg_value_mul_i\[27\] I *L 0.000e+00 *S 1.677e-02 1.677e-02 
reg_value_mul_i\[26\] I *L 0.000e+00 *S 1.677e-02 1.677e-02 
reg_value_mul_i\[25\] I *L 0.000e+00 *S 1.677e-02 1.677e-02 
reg_value_mul_i\[24\] I *L 0.000e+00 *S 1.677e-02 1.677e-02 
reg_value_mul_i\[23\] I *L 0.000e+00 *S 1.677e-02 1.677e-02 
reg_value_mul_i\[22\] I *L 0.000e+00 *S 1.677e-02 1.677e-02 
reg_value_mul_i\[21\] I *L 0.000e+00 *S 1.677e-02 1.677e-02 
reg_value_mul_i\[20\] I *L 0.000e+00 *S 1.677e-02 1.677e-02 
reg_value_mul_i\[19\] I *L 0.000e+00 *S 1.677e-02 1.677e-02 
reg_value_mul_i\[18\] I *L 0.000e+00 *S 1.677e-02 1.677e-02 
reg_value_mul_i\[17\] I *L 0.000e+00 *S 1.677e-02 1.677e-02 
reg_value_mul_i\[16\] I *L 0.000e+00 *S 1.677e-02 1.677e-02 
reg_value_mul_i\[15\] I *L 0.000e+00 *S 1.677e-02 1.677e-02 
reg_value_mul_i\[14\] I *L 0.000e+00 *S 1.677e-02 1.677e-02 
reg_value_mul_i\[13\] I *L 0.000e+00 *S 1.677e-02 1.677e-02 
reg_value_mul_i\[12\] I *L 0.000e+00 *S 1.677e-02 1.677e-02 
reg_value_mul_i\[11\] I *L 0.000e+00 *S 1.677e-02 1.677e-02 
reg_value_mul_i\[10\] I *L 0.000e+00 *S 1.677e-02 1.677e-02 
reg_value_mul_i\[9\] I *L 0.000e+00 *S 1.677e-02 1.677e-02 
reg_value_mul_i\[8\] I *L 0.000e+00 *S 1.677e-02 1.677e-02 
reg_value_mul_i\[7\] I *L 0.000e+00 *S 1.677e-02 1.677e-02 
reg_value_mul_i\[6\] I *L 0.000e+00 *S 1.677e-02 1.677e-02 
reg_value_mul_i\[5\] I *L 0.000e+00 *S 1.677e-02 1.677e-02 
reg_value_mul_i\[4\] I *L 0.000e+00 *S 1.677e-02 1.677e-02 
reg_value_mul_i\[3\] I *L 0.000e+00 *S 1.677e-02 1.677e-02 
reg_value_mul_i\[2\] I *L 0.000e+00 *S 1.677e-02 1.677e-02 
reg_value_mul_i\[1\] I *L 0.000e+00 *S 1.677e-02 1.677e-02 
reg_value_mul_i\[0\] I *L 0.000e+00 *S 1.677e-02 1.677e-02 
empty_o O *L 2.469e+01 *S 2.853e-01 7.290e-02 
full_o O *L 2.469e+01 *S 2.320e-01 1.039e-01 
rob_idx_o\[4\] O *L 2.469e+01 *S 2.259e-01 8.917e-02 
rob_idx_o\[3\] O *L 2.469e+01 *S 1.923e-01 7.891e-02 
rob_idx_o\[2\] O *L 2.469e+01 *S 2.253e-01 8.898e-02 
rob_idx_o\[1\] O *L 2.469e+01 *S 1.923e-01 7.891e-02 
rob_idx_o\[0\] O *L 2.469e+01 *S 2.257e-01 8.912e-02 
commitment_valid_o O *L 2.469e+01 *S 1.923e-01 7.891e-02 
inst_committed_o\[31\] O *L 2.469e+01 *S 1.923e-01 7.891e-02 
inst_committed_o\[30\] O *L 2.469e+01 *S 1.923e-01 7.891e-02 
inst_committed_o\[29\] O *L 2.469e+01 *S 1.923e-01 7.891e-02 
inst_committed_o\[28\] O *L 2.469e+01 *S 1.923e-01 7.891e-02 
inst_committed_o\[27\] O *L 2.469e+01 *S 1.923e-01 7.891e-02 
inst_committed_o\[26\] O *L 2.469e+01 *S 1.923e-01 7.891e-02 
inst_committed_o\[25\] O *L 2.469e+01 *S 1.923e-01 7.891e-02 
inst_committed_o\[24\] O *L 2.469e+01 *S 1.923e-01 7.891e-02 
inst_committed_o\[23\] O *L 2.469e+01 *S 1.923e-01 7.891e-02 
inst_committed_o\[22\] O *L 2.469e+01 *S 1.923e-01 7.891e-02 
inst_committed_o\[21\] O *L 2.469e+01 *S 1.923e-01 7.891e-02 
inst_committed_o\[20\] O *L 2.469e+01 *S 1.923e-01 7.891e-02 
inst_committed_o\[19\] O *L 2.469e+01 *S 1.923e-01 7.891e-02 
inst_committed_o\[18\] O *L 2.469e+01 *S 1.923e-01 7.891e-02 
inst_committed_o\[17\] O *L 2.469e+01 *S 1.923e-01 7.891e-02 
inst_committed_o\[16\] O *L 2.469e+01 *S 1.923e-01 7.891e-02 
inst_committed_o\[15\] O *L 2.469e+01 *S 1.923e-01 7.891e-02 
inst_committed_o\[14\] O *L 2.469e+01 *S 1.923e-01 7.891e-02 
inst_committed_o\[13\] O *L 2.469e+01 *S 1.923e-01 7.891e-02 
inst_committed_o\[12\] O *L 2.469e+01 *S 1.923e-01 7.891e-02 
inst_committed_o\[11\] O *L 2.469e+01 *S 1.923e-01 7.891e-02 
inst_committed_o\[10\] O *L 2.469e+01 *S 1.923e-01 7.891e-02 
inst_committed_o\[9\] O *L 2.469e+01 *S 1.923e-01 7.891e-02 
inst_committed_o\[8\] O *L 2.469e+01 *S 1.923e-01 7.891e-02 
inst_committed_o\[7\] O *L 2.469e+01 *S 1.923e-01 7.891e-02 
inst_committed_o\[6\] O *L 2.469e+01 *S 1.923e-01 7.891e-02 
inst_committed_o\[5\] O *L 2.469e+01 *S 1.923e-01 7.891e-02 
inst_committed_o\[4\] O *L 2.469e+01 *S 1.923e-01 7.891e-02 
inst_committed_o\[3\] O *L 2.469e+01 *S 1.923e-01 7.891e-02 
inst_committed_o\[2\] O *L 2.469e+01 *S 1.923e-01 7.891e-02 
inst_committed_o\[1\] O *L 2.469e+01 *S 1.923e-01 7.891e-02 
inst_committed_o\[0\] O *L 2.469e+01 *S 1.923e-01 7.891e-02 
pc_committed_o\[31\] O *L 2.469e+01 *S 1.923e-01 7.891e-02 
pc_committed_o\[30\] O *L 2.469e+01 *S 1.923e-01 7.891e-02 
pc_committed_o\[29\] O *L 2.469e+01 *S 1.923e-01 7.891e-02 
pc_committed_o\[28\] O *L 2.469e+01 *S 1.923e-01 7.891e-02 
pc_committed_o\[27\] O *L 2.469e+01 *S 1.923e-01 7.891e-02 
pc_committed_o\[26\] O *L 2.469e+01 *S 1.923e-01 7.891e-02 
pc_committed_o\[25\] O *L 2.469e+01 *S 1.923e-01 7.891e-02 
pc_committed_o\[24\] O *L 2.469e+01 *S 1.923e-01 7.891e-02 
pc_committed_o\[23\] O *L 2.469e+01 *S 1.923e-01 7.891e-02 
pc_committed_o\[22\] O *L 2.469e+01 *S 1.923e-01 7.891e-02 
pc_committed_o\[21\] O *L 2.469e+01 *S 1.923e-01 7.891e-02 
pc_committed_o\[20\] O *L 2.469e+01 *S 1.923e-01 7.891e-02 
pc_committed_o\[19\] O *L 2.469e+01 *S 1.923e-01 7.891e-02 
pc_committed_o\[18\] O *L 2.469e+01 *S 1.923e-01 7.891e-02 
pc_committed_o\[17\] O *L 2.469e+01 *S 1.923e-01 7.891e-02 
pc_committed_o\[16\] O *L 2.469e+01 *S 1.923e-01 7.891e-02 
pc_committed_o\[15\] O *L 2.469e+01 *S 1.923e-01 7.891e-02 
pc_committed_o\[14\] O *L 2.469e+01 *S 1.923e-01 7.891e-02 
pc_committed_o\[13\] O *L 2.469e+01 *S 1.923e-01 7.891e-02 
pc_committed_o\[12\] O *L 2.469e+01 *S 1.923e-01 7.891e-02 
pc_committed_o\[11\] O *L 2.469e+01 *S 1.923e-01 7.891e-02 
pc_committed_o\[10\] O *L 2.469e+01 *S 1.923e-01 7.891e-02 
pc_committed_o\[9\] O *L 2.469e+01 *S 1.923e-01 7.891e-02 
pc_committed_o\[8\] O *L 2.469e+01 *S 1.923e-01 7.891e-02 
pc_committed_o\[7\] O *L 2.469e+01 *S 1.923e-01 7.891e-02 
pc_committed_o\[6\] O *L 2.469e+01 *S 1.923e-01 7.891e-02 
pc_committed_o\[5\] O *L 2.469e+01 *S 1.923e-01 7.891e-02 
pc_committed_o\[4\] O *L 2.469e+01 *S 1.923e-01 7.891e-02 
pc_committed_o\[3\] O *L 2.469e+01 *S 1.923e-01 7.891e-02 
pc_committed_o\[2\] O *L 2.469e+01 *S 1.923e-01 7.891e-02 
pc_committed_o\[1\] O *L 2.469e+01 *S 1.923e-01 7.891e-02 
pc_committed_o\[0\] O *L 2.469e+01 *S 1.923e-01 7.891e-02 
prd_addr_committed_o\[4\] O *L 2.469e+01 *S 1.923e-01 7.891e-02 
prd_addr_committed_o\[3\] O *L 2.469e+01 *S 1.923e-01 7.891e-02 
prd_addr_committed_o\[2\] O *L 2.469e+01 *S 1.923e-01 7.891e-02 
prd_addr_committed_o\[1\] O *L 2.469e+01 *S 1.923e-01 7.891e-02 
prd_addr_committed_o\[0\] O *L 2.469e+01 *S 1.923e-01 7.891e-02 
prd_value_committed_o\[31\] O *L 2.469e+01 *S 1.923e-01 7.891e-02 
prd_value_committed_o\[30\] O *L 2.469e+01 *S 1.923e-01 7.891e-02 
prd_value_committed_o\[29\] O *L 2.469e+01 *S 1.923e-01 7.891e-02 
prd_value_committed_o\[28\] O *L 2.469e+01 *S 1.923e-01 7.891e-02 
prd_value_committed_o\[27\] O *L 2.469e+01 *S 1.923e-01 7.891e-02 
prd_value_committed_o\[26\] O *L 2.469e+01 *S 1.923e-01 7.891e-02 
prd_value_committed_o\[25\] O *L 2.469e+01 *S 1.923e-01 7.891e-02 
prd_value_committed_o\[24\] O *L 2.469e+01 *S 1.923e-01 7.891e-02 
prd_value_committed_o\[23\] O *L 2.469e+01 *S 1.923e-01 7.891e-02 
prd_value_committed_o\[22\] O *L 2.469e+01 *S 1.923e-01 7.891e-02 
prd_value_committed_o\[21\] O *L 2.469e+01 *S 1.923e-01 7.891e-02 
prd_value_committed_o\[20\] O *L 2.469e+01 *S 1.923e-01 7.891e-02 
prd_value_committed_o\[19\] O *L 2.469e+01 *S 1.923e-01 7.891e-02 
prd_value_committed_o\[18\] O *L 2.469e+01 *S 1.923e-01 7.891e-02 
prd_value_committed_o\[17\] O *L 2.469e+01 *S 1.923e-01 7.891e-02 
prd_value_committed_o\[16\] O *L 2.469e+01 *S 1.923e-01 7.891e-02 
prd_value_committed_o\[15\] O *L 2.469e+01 *S 1.923e-01 7.891e-02 
prd_value_committed_o\[14\] O *L 2.469e+01 *S 1.923e-01 7.891e-02 
prd_value_committed_o\[13\] O *L 2.469e+01 *S 1.923e-01 7.891e-02 
prd_value_committed_o\[12\] O *L 2.469e+01 *S 1.923e-01 7.891e-02 
prd_value_committed_o\[11\] O *L 2.469e+01 *S 1.923e-01 7.891e-02 
prd_value_committed_o\[10\] O *L 2.469e+01 *S 1.923e-01 7.891e-02 
prd_value_committed_o\[9\] O *L 2.469e+01 *S 1.923e-01 7.891e-02 
prd_value_committed_o\[8\] O *L 2.469e+01 *S 1.923e-01 7.891e-02 
prd_value_committed_o\[7\] O *L 2.469e+01 *S 1.923e-01 7.891e-02 
prd_value_committed_o\[6\] O *L 2.469e+01 *S 1.923e-01 7.891e-02 
prd_value_committed_o\[5\] O *L 2.469e+01 *S 1.923e-01 7.891e-02 
prd_value_committed_o\[4\] O *L 2.469e+01 *S 1.923e-01 7.891e-02 
prd_value_committed_o\[3\] O *L 2.469e+01 *S 1.923e-01 7.891e-02 
prd_value_committed_o\[2\] O *L 2.469e+01 *S 1.923e-01 7.891e-02 
prd_value_committed_o\[1\] O *L 2.469e+01 *S 1.923e-01 7.891e-02 
prd_value_committed_o\[0\] O *L 2.469e+01 *S 1.923e-01 7.891e-02 

*R_NET allocate_req_i 2.741e+01
*DRIVER allocate_req_i
*CELL NULL
*C2_R1_C1 1.371e+01 1.323e-01 1.371e+01 
*LOADS
*RC cbuf_prd/U21:A 2.186e-02
*RC cbuf_prd/U46:B1 2.145e-02
*RC cbuf_pc/U58:A1 2.110e-02
*RC cbuf_pc/U59:A 2.186e-02
*RC cbuf_pc/U825:A2 2.155e-02
*RC U7780:A 2.125e-02
*RC U7781:A2 2.142e-02
*RC U13741:A 2.186e-02
*RC U13742:B1 2.090e-02
*RC U13743:A1 2.110e-02
*RC cbuf_inst/U51:A1 2.110e-02
*RC cbuf_inst/U52:A 2.186e-02
*RC cbuf_inst/U819:A2 2.155e-02
*END

*R_NET update_req_alu_i 7.044e+01
*DRIVER update_req_alu_i
*CELL NULL
*C2_R1_C1 3.522e+01 4.537e-01 3.522e+01 
*LOADS
*RC U7790:A 2.173e-02
*RC U7830:A 2.173e-02
*RC U7897:A2 3.393e-02
*RC U7898:A3 3.340e-02
*RC U7900:B1 3.410e-02
*RC U8504:B1 3.410e-02
*RC U8678:B1 3.410e-02
*RC U8825:B1 3.410e-02
*RC U9013:B1 3.410e-02
*RC U9183:B1 3.410e-02
*RC U9305:B1 3.410e-02
*RC U9517:B1 3.410e-02
*RC U9636:B1 3.410e-02
*RC U9842:B1 3.410e-02
*RC U9984:B1 3.410e-02
*RC U10127:B1 3.410e-02
*RC U10316:B1 3.410e-02
*RC U10502:B1 3.410e-02
*RC U10669:B1 3.410e-02
*RC U10810:B1 3.410e-02
*RC U10997:B1 3.410e-02
*RC U11117:B1 3.410e-02
*RC U11325:B1 3.410e-02
*RC U11489:B1 3.410e-02
*RC U11651:B1 3.410e-02
*RC U11795:B1 3.410e-02
*RC U11958:B1 3.410e-02
*RC U12100:B1 3.410e-02
*RC U12284:B1 3.410e-02
*RC U12425:B1 3.410e-02
*RC U13607:A 3.364e-02
*END

*R_NET update_req_lsu_i 3.048e+01
*DRIVER update_req_lsu_i
*CELL NULL
*C2_R1_C1 1.524e+01 1.501e-01 1.524e+01 
*LOADS
*RC U10295:A1 2.334e-02
*RC U10460:A1 2.334e-02
*RC U10626:A1 2.334e-02
*RC U10790:A1 2.334e-02
*RC U11143:A1 2.334e-02
*RC U11305:A1 2.334e-02
*RC U11447:A1 2.334e-02
*RC U11819:A1 2.334e-02
*RC U12145:A1 2.334e-02
*RC U12263:A1 2.334e-02
*RC U12936:A1 2.334e-02
*RC U13076:A1 2.334e-02
*RC U13284:A1 2.334e-02
*RC U7921:A 2.334e-02
*END

*R_NET update_req_mul_i 4.313e+01
*DRIVER update_req_mul_i
*CELL NULL
*C2_R1_C1 2.157e+01 2.394e-01 2.157e+01 
*LOADS
*RC U8101:A 2.860e-02
*RC U8102:A1 2.860e-02
*RC U8461:A1 2.860e-02
*RC U8636:A1 2.860e-02
*RC U8804:A1 2.860e-02
*RC U8993:A1 2.860e-02
*RC U9163:A1 2.860e-02
*RC U9329:A1 2.860e-02
*RC U9476:A1 2.860e-02
*RC U9822:A1 2.860e-02
*RC U9963:A1 2.860e-02
*RC U10174:A1 2.860e-02
*RC U10835:A1 2.860e-02
*RC U10955:A1 2.860e-02
*RC U11164:A1 2.860e-02
*RC U11610:A1 2.860e-02
*RC U11773:A1 2.860e-02
*RC U11938:A1 2.860e-02
*RC U12124:A1 2.860e-02
*END

*R_NET prd_addr_i\[4\] 1.878e+00
*DRIVER prd_addr_i\[4\]
*CELL NULL
*C2_R1_C1 9.390e-01 6.236e-03 9.390e-01 
*LOADS
*RC cbuf_prd/U198:A1 1.171e-02
*END

*R_NET prd_addr_i\[3\] 1.878e+00
*DRIVER prd_addr_i\[3\]
*CELL NULL
*C2_R1_C1 9.390e-01 6.236e-03 9.390e-01 
*LOADS
*RC cbuf_prd/U196:A1 1.171e-02
*END

*R_NET prd_addr_i\[2\] 1.878e+00
*DRIVER prd_addr_i\[2\]
*CELL NULL
*C2_R1_C1 9.390e-01 6.236e-03 9.390e-01 
*LOADS
*RC cbuf_prd/U193:A1 1.171e-02
*END

*R_NET prd_addr_i\[1\] 1.878e+00
*DRIVER prd_addr_i\[1\]
*CELL NULL
*C2_R1_C1 9.390e-01 6.236e-03 9.390e-01 
*LOADS
*RC cbuf_prd/U190:A1 1.171e-02
*END

*R_NET prd_addr_i\[0\] 1.878e+00
*DRIVER prd_addr_i\[0\]
*CELL NULL
*C2_R1_C1 9.390e-01 6.236e-03 9.390e-01 
*LOADS
*RC cbuf_prd/U186:A1 1.171e-02
*END

*R_NET pc_i\[31\] 1.923e+00
*DRIVER pc_i\[31\]
*CELL NULL
*C2_R1_C1 9.615e-01 6.236e-03 9.615e-01 
*LOADS
*RC cbuf_pc/U888:A2 1.199e-02
*END

*R_NET pc_i\[30\] 1.923e+00
*DRIVER pc_i\[30\]
*CELL NULL
*C2_R1_C1 9.615e-01 6.236e-03 9.615e-01 
*LOADS
*RC cbuf_pc/U886:A2 1.199e-02
*END

*R_NET pc_i\[29\] 1.923e+00
*DRIVER pc_i\[29\]
*CELL NULL
*C2_R1_C1 9.615e-01 6.236e-03 9.615e-01 
*LOADS
*RC cbuf_pc/U884:A2 1.199e-02
*END

*R_NET pc_i\[28\] 1.923e+00
*DRIVER pc_i\[28\]
*CELL NULL
*C2_R1_C1 9.615e-01 6.236e-03 9.615e-01 
*LOADS
*RC cbuf_pc/U882:A2 1.199e-02
*END

*R_NET pc_i\[27\] 1.923e+00
*DRIVER pc_i\[27\]
*CELL NULL
*C2_R1_C1 9.615e-01 6.236e-03 9.615e-01 
*LOADS
*RC cbuf_pc/U880:A2 1.199e-02
*END

*R_NET pc_i\[26\] 1.923e+00
*DRIVER pc_i\[26\]
*CELL NULL
*C2_R1_C1 9.615e-01 6.236e-03 9.615e-01 
*LOADS
*RC cbuf_pc/U878:A2 1.199e-02
*END

*R_NET pc_i\[25\] 1.923e+00
*DRIVER pc_i\[25\]
*CELL NULL
*C2_R1_C1 9.615e-01 6.236e-03 9.615e-01 
*LOADS
*RC cbuf_pc/U876:A2 1.199e-02
*END

*R_NET pc_i\[24\] 1.923e+00
*DRIVER pc_i\[24\]
*CELL NULL
*C2_R1_C1 9.615e-01 6.236e-03 9.615e-01 
*LOADS
*RC cbuf_pc/U874:A2 1.199e-02
*END

*R_NET pc_i\[23\] 1.923e+00
*DRIVER pc_i\[23\]
*CELL NULL
*C2_R1_C1 9.615e-01 6.236e-03 9.615e-01 
*LOADS
*RC cbuf_pc/U872:A2 1.199e-02
*END

*R_NET pc_i\[22\] 1.923e+00
*DRIVER pc_i\[22\]
*CELL NULL
*C2_R1_C1 9.615e-01 6.236e-03 9.615e-01 
*LOADS
*RC cbuf_pc/U870:A2 1.199e-02
*END

*R_NET pc_i\[21\] 1.923e+00
*DRIVER pc_i\[21\]
*CELL NULL
*C2_R1_C1 9.615e-01 6.236e-03 9.615e-01 
*LOADS
*RC cbuf_pc/U868:A2 1.199e-02
*END

*R_NET pc_i\[20\] 1.923e+00
*DRIVER pc_i\[20\]
*CELL NULL
*C2_R1_C1 9.615e-01 6.236e-03 9.615e-01 
*LOADS
*RC cbuf_pc/U866:A2 1.199e-02
*END

*R_NET pc_i\[19\] 1.923e+00
*DRIVER pc_i\[19\]
*CELL NULL
*C2_R1_C1 9.615e-01 6.236e-03 9.615e-01 
*LOADS
*RC cbuf_pc/U864:A2 1.199e-02
*END

*R_NET pc_i\[18\] 1.923e+00
*DRIVER pc_i\[18\]
*CELL NULL
*C2_R1_C1 9.615e-01 6.236e-03 9.615e-01 
*LOADS
*RC cbuf_pc/U862:A2 1.199e-02
*END

*R_NET pc_i\[17\] 1.923e+00
*DRIVER pc_i\[17\]
*CELL NULL
*C2_R1_C1 9.615e-01 6.236e-03 9.615e-01 
*LOADS
*RC cbuf_pc/U860:A2 1.199e-02
*END

*R_NET pc_i\[16\] 1.923e+00
*DRIVER pc_i\[16\]
*CELL NULL
*C2_R1_C1 9.615e-01 6.236e-03 9.615e-01 
*LOADS
*RC cbuf_pc/U858:A2 1.199e-02
*END

*R_NET pc_i\[15\] 1.923e+00
*DRIVER pc_i\[15\]
*CELL NULL
*C2_R1_C1 9.615e-01 6.236e-03 9.615e-01 
*LOADS
*RC cbuf_pc/U856:A2 1.199e-02
*END

*R_NET pc_i\[14\] 1.923e+00
*DRIVER pc_i\[14\]
*CELL NULL
*C2_R1_C1 9.615e-01 6.236e-03 9.615e-01 
*LOADS
*RC cbuf_pc/U854:A2 1.199e-02
*END

*R_NET pc_i\[13\] 1.923e+00
*DRIVER pc_i\[13\]
*CELL NULL
*C2_R1_C1 9.615e-01 6.236e-03 9.615e-01 
*LOADS
*RC cbuf_pc/U852:A2 1.199e-02
*END

*R_NET pc_i\[12\] 1.923e+00
*DRIVER pc_i\[12\]
*CELL NULL
*C2_R1_C1 9.615e-01 6.236e-03 9.615e-01 
*LOADS
*RC cbuf_pc/U850:A2 1.199e-02
*END

*R_NET pc_i\[11\] 1.923e+00
*DRIVER pc_i\[11\]
*CELL NULL
*C2_R1_C1 9.615e-01 6.236e-03 9.615e-01 
*LOADS
*RC cbuf_pc/U848:A2 1.199e-02
*END

*R_NET pc_i\[10\] 1.923e+00
*DRIVER pc_i\[10\]
*CELL NULL
*C2_R1_C1 9.615e-01 6.236e-03 9.615e-01 
*LOADS
*RC cbuf_pc/U846:A2 1.199e-02
*END

*R_NET pc_i\[9\] 1.923e+00
*DRIVER pc_i\[9\]
*CELL NULL
*C2_R1_C1 9.615e-01 6.236e-03 9.615e-01 
*LOADS
*RC cbuf_pc/U844:A2 1.199e-02
*END

*R_NET pc_i\[8\] 1.923e+00
*DRIVER pc_i\[8\]
*CELL NULL
*C2_R1_C1 9.615e-01 6.236e-03 9.615e-01 
*LOADS
*RC cbuf_pc/U842:A2 1.199e-02
*END

*R_NET pc_i\[7\] 1.923e+00
*DRIVER pc_i\[7\]
*CELL NULL
*C2_R1_C1 9.615e-01 6.236e-03 9.615e-01 
*LOADS
*RC cbuf_pc/U840:A2 1.199e-02
*END

*R_NET pc_i\[6\] 1.923e+00
*DRIVER pc_i\[6\]
*CELL NULL
*C2_R1_C1 9.615e-01 6.236e-03 9.615e-01 
*LOADS
*RC cbuf_pc/U838:A2 1.199e-02
*END

*R_NET pc_i\[5\] 1.923e+00
*DRIVER pc_i\[5\]
*CELL NULL
*C2_R1_C1 9.615e-01 6.236e-03 9.615e-01 
*LOADS
*RC cbuf_pc/U836:A2 1.199e-02
*END

*R_NET pc_i\[4\] 1.923e+00
*DRIVER pc_i\[4\]
*CELL NULL
*C2_R1_C1 9.615e-01 6.236e-03 9.615e-01 
*LOADS
*RC cbuf_pc/U834:A2 1.199e-02
*END

*R_NET pc_i\[3\] 1.923e+00
*DRIVER pc_i\[3\]
*CELL NULL
*C2_R1_C1 9.615e-01 6.236e-03 9.615e-01 
*LOADS
*RC cbuf_pc/U832:A2 1.199e-02
*END

*R_NET pc_i\[2\] 1.923e+00
*DRIVER pc_i\[2\]
*CELL NULL
*C2_R1_C1 9.615e-01 6.236e-03 9.615e-01 
*LOADS
*RC cbuf_pc/U830:A2 1.199e-02
*END

*R_NET pc_i\[1\] 1.923e+00
*DRIVER pc_i\[1\]
*CELL NULL
*C2_R1_C1 9.615e-01 6.236e-03 9.615e-01 
*LOADS
*RC cbuf_pc/U828:A2 1.199e-02
*END

*R_NET pc_i\[0\] 1.923e+00
*DRIVER pc_i\[0\]
*CELL NULL
*C2_R1_C1 9.615e-01 6.236e-03 9.615e-01 
*LOADS
*RC cbuf_pc/U826:A2 1.199e-02
*END

*R_NET inst_i\[31\] 1.923e+00
*DRIVER inst_i\[31\]
*CELL NULL
*C2_R1_C1 9.615e-01 6.236e-03 9.615e-01 
*LOADS
*RC cbuf_inst/U884:A2 1.199e-02
*END

*R_NET inst_i\[30\] 1.923e+00
*DRIVER inst_i\[30\]
*CELL NULL
*C2_R1_C1 9.615e-01 6.236e-03 9.615e-01 
*LOADS
*RC cbuf_inst/U882:A2 1.199e-02
*END

*R_NET inst_i\[29\] 1.923e+00
*DRIVER inst_i\[29\]
*CELL NULL
*C2_R1_C1 9.615e-01 6.236e-03 9.615e-01 
*LOADS
*RC cbuf_inst/U880:A2 1.199e-02
*END

*R_NET inst_i\[28\] 1.923e+00
*DRIVER inst_i\[28\]
*CELL NULL
*C2_R1_C1 9.615e-01 6.236e-03 9.615e-01 
*LOADS
*RC cbuf_inst/U878:A2 1.199e-02
*END

*R_NET inst_i\[27\] 1.923e+00
*DRIVER inst_i\[27\]
*CELL NULL
*C2_R1_C1 9.615e-01 6.236e-03 9.615e-01 
*LOADS
*RC cbuf_inst/U876:A2 1.199e-02
*END

*R_NET inst_i\[26\] 1.923e+00
*DRIVER inst_i\[26\]
*CELL NULL
*C2_R1_C1 9.615e-01 6.236e-03 9.615e-01 
*LOADS
*RC cbuf_inst/U874:A2 1.199e-02
*END

*R_NET inst_i\[25\] 1.923e+00
*DRIVER inst_i\[25\]
*CELL NULL
*C2_R1_C1 9.615e-01 6.236e-03 9.615e-01 
*LOADS
*RC cbuf_inst/U872:A2 1.199e-02
*END

*R_NET inst_i\[24\] 1.923e+00
*DRIVER inst_i\[24\]
*CELL NULL
*C2_R1_C1 9.615e-01 6.236e-03 9.615e-01 
*LOADS
*RC cbuf_inst/U870:A2 1.199e-02
*END

*R_NET inst_i\[23\] 1.923e+00
*DRIVER inst_i\[23\]
*CELL NULL
*C2_R1_C1 9.615e-01 6.236e-03 9.615e-01 
*LOADS
*RC cbuf_inst/U868:A2 1.199e-02
*END

*R_NET inst_i\[22\] 1.923e+00
*DRIVER inst_i\[22\]
*CELL NULL
*C2_R1_C1 9.615e-01 6.236e-03 9.615e-01 
*LOADS
*RC cbuf_inst/U866:A2 1.199e-02
*END

*R_NET inst_i\[21\] 1.923e+00
*DRIVER inst_i\[21\]
*CELL NULL
*C2_R1_C1 9.615e-01 6.236e-03 9.615e-01 
*LOADS
*RC cbuf_inst/U864:A2 1.199e-02
*END

*R_NET inst_i\[20\] 1.923e+00
*DRIVER inst_i\[20\]
*CELL NULL
*C2_R1_C1 9.615e-01 6.236e-03 9.615e-01 
*LOADS
*RC cbuf_inst/U862:A2 1.199e-02
*END

*R_NET inst_i\[19\] 1.923e+00
*DRIVER inst_i\[19\]
*CELL NULL
*C2_R1_C1 9.615e-01 6.236e-03 9.615e-01 
*LOADS
*RC cbuf_inst/U860:A2 1.199e-02
*END

*R_NET inst_i\[18\] 1.923e+00
*DRIVER inst_i\[18\]
*CELL NULL
*C2_R1_C1 9.615e-01 6.236e-03 9.615e-01 
*LOADS
*RC cbuf_inst/U857:A2 1.199e-02
*END

*R_NET inst_i\[17\] 1.923e+00
*DRIVER inst_i\[17\]
*CELL NULL
*C2_R1_C1 9.615e-01 6.236e-03 9.615e-01 
*LOADS
*RC cbuf_inst/U855:A2 1.199e-02
*END

*R_NET inst_i\[16\] 1.923e+00
*DRIVER inst_i\[16\]
*CELL NULL
*C2_R1_C1 9.615e-01 6.236e-03 9.615e-01 
*LOADS
*RC cbuf_inst/U853:A2 1.199e-02
*END

*R_NET inst_i\[15\] 1.923e+00
*DRIVER inst_i\[15\]
*CELL NULL
*C2_R1_C1 9.615e-01 6.236e-03 9.615e-01 
*LOADS
*RC cbuf_inst/U851:A2 1.199e-02
*END

*R_NET inst_i\[14\] 1.923e+00
*DRIVER inst_i\[14\]
*CELL NULL
*C2_R1_C1 9.615e-01 6.236e-03 9.615e-01 
*LOADS
*RC cbuf_inst/U849:A2 1.199e-02
*END

*R_NET inst_i\[13\] 1.923e+00
*DRIVER inst_i\[13\]
*CELL NULL
*C2_R1_C1 9.615e-01 6.236e-03 9.615e-01 
*LOADS
*RC cbuf_inst/U847:A2 1.199e-02
*END

*R_NET inst_i\[12\] 1.923e+00
*DRIVER inst_i\[12\]
*CELL NULL
*C2_R1_C1 9.615e-01 6.236e-03 9.615e-01 
*LOADS
*RC cbuf_inst/U845:A2 1.199e-02
*END

*R_NET inst_i\[11\] 1.923e+00
*DRIVER inst_i\[11\]
*CELL NULL
*C2_R1_C1 9.615e-01 6.236e-03 9.615e-01 
*LOADS
*RC cbuf_inst/U843:A2 1.199e-02
*END

*R_NET inst_i\[10\] 1.923e+00
*DRIVER inst_i\[10\]
*CELL NULL
*C2_R1_C1 9.615e-01 6.236e-03 9.615e-01 
*LOADS
*RC cbuf_inst/U841:A2 1.199e-02
*END

*R_NET inst_i\[9\] 1.923e+00
*DRIVER inst_i\[9\]
*CELL NULL
*C2_R1_C1 9.615e-01 6.236e-03 9.615e-01 
*LOADS
*RC cbuf_inst/U839:A2 1.199e-02
*END

*R_NET inst_i\[8\] 1.923e+00
*DRIVER inst_i\[8\]
*CELL NULL
*C2_R1_C1 9.615e-01 6.236e-03 9.615e-01 
*LOADS
*RC cbuf_inst/U837:A2 1.199e-02
*END

*R_NET inst_i\[7\] 1.923e+00
*DRIVER inst_i\[7\]
*CELL NULL
*C2_R1_C1 9.615e-01 6.236e-03 9.615e-01 
*LOADS
*RC cbuf_inst/U835:A2 1.199e-02
*END

*R_NET inst_i\[6\] 1.923e+00
*DRIVER inst_i\[6\]
*CELL NULL
*C2_R1_C1 9.615e-01 6.236e-03 9.615e-01 
*LOADS
*RC cbuf_inst/U833:A2 1.199e-02
*END

*R_NET inst_i\[5\] 1.923e+00
*DRIVER inst_i\[5\]
*CELL NULL
*C2_R1_C1 9.615e-01 6.236e-03 9.615e-01 
*LOADS
*RC cbuf_inst/U831:A2 1.199e-02
*END

*R_NET inst_i\[4\] 1.923e+00
*DRIVER inst_i\[4\]
*CELL NULL
*C2_R1_C1 9.615e-01 6.236e-03 9.615e-01 
*LOADS
*RC cbuf_inst/U829:A2 1.199e-02
*END

*R_NET inst_i\[3\] 1.923e+00
*DRIVER inst_i\[3\]
*CELL NULL
*C2_R1_C1 9.615e-01 6.236e-03 9.615e-01 
*LOADS
*RC cbuf_inst/U827:A2 1.199e-02
*END

*R_NET inst_i\[2\] 1.923e+00
*DRIVER inst_i\[2\]
*CELL NULL
*C2_R1_C1 9.615e-01 6.236e-03 9.615e-01 
*LOADS
*RC cbuf_inst/U825:A2 1.199e-02
*END

*R_NET inst_i\[1\] 1.923e+00
*DRIVER inst_i\[1\]
*CELL NULL
*C2_R1_C1 9.615e-01 6.236e-03 9.615e-01 
*LOADS
*RC cbuf_inst/U823:A2 1.199e-02
*END

*R_NET inst_i\[0\] 1.923e+00
*DRIVER inst_i\[0\]
*CELL NULL
*C2_R1_C1 9.615e-01 6.236e-03 9.615e-01 
*LOADS
*RC cbuf_inst/U820:A2 1.199e-02
*END

*R_NET rob_idx_alu_i\[4\] 1.180e+01