*SPEF "IEEE 1481-1999"
*DESIGN "rob"
*DATE "Thu Jun  8 22:40:32 2023"
*VENDOR "SYNOPSYS INC"
*PROGRAM "Synopsys Design Compiler cmos"
*VERSION "T-2022.03-SP3"
*DESIGN_FLOW "SYNTHESIS"
*DIVIDER /
*DELIMITER :
*BUS_DELIMITER []
*T_UNIT 1.0 NS
*C_UNIT 0.0010 PF
*R_UNIT 1000.0 KOHM
*L_UNIT 1.0 HENRY

*PORTS

clk_i I *L 0.000e+00 *S 8.671e+03 8.671e+03 
reset_i I *L 0.000e+00 *S 0.000e+00 0.000e+00 
allocate_req_i I *L 0.000e+00 *S 2.157e-01 2.157e-01 
update_req_alu_i I *L 0.000e+00 *S 5.182e-02 5.182e-02 
update_req_lsu_i I *L 0.000e+00 *S 3.358e-02 3.358e-02 
update_req_mul_i I *L 0.000e+00 *S 3.358e-02 3.358e-02 
prd_addr_i\[4\] I *L 0.000e+00 *S 1.625e-02 1.625e-02 
prd_addr_i\[3\] I *L 0.000e+00 *S 1.625e-02 1.625e-02 
prd_addr_i\[2\] I *L 0.000e+00 *S 1.625e-02 1.625e-02 
prd_addr_i\[1\] I *L 0.000e+00 *S 1.625e-02 1.625e-02 
prd_addr_i\[0\] I *L 0.000e+00 *S 1.625e-02 1.625e-02 
pc_i\[31\] I *L 0.000e+00 *S 1.664e-02 1.664e-02 
pc_i\[30\] I *L 0.000e+00 *S 1.664e-02 1.664e-02 
pc_i\[29\] I *L 0.000e+00 *S 1.664e-02 1.664e-02 
pc_i\[28\] I *L 0.000e+00 *S 1.664e-02 1.664e-02 
pc_i\[27\] I *L 0.000e+00 *S 1.664e-02 1.664e-02 
pc_i\[26\] I *L 0.000e+00 *S 1.664e-02 1.664e-02 
pc_i\[25\] I *L 0.000e+00 *S 1.664e-02 1.664e-02 
pc_i\[24\] I *L 0.000e+00 *S 1.664e-02 1.664e-02 
pc_i\[23\] I *L 0.000e+00 *S 1.664e-02 1.664e-02 
pc_i\[22\] I *L 0.000e+00 *S 1.664e-02 1.664e-02 
pc_i\[21\] I *L 0.000e+00 *S 1.664e-02 1.664e-02 
pc_i\[20\] I *L 0.000e+00 *S 1.664e-02 1.664e-02 
pc_i\[19\] I *L 0.000e+00 *S 1.664e-02 1.664e-02 
pc_i\[18\] I *L 0.000e+00 *S 1.664e-02 1.664e-02 
pc_i\[17\] I *L 0.000e+00 *S 1.664e-02 1.664e-02 
pc_i\[16\] I *L 0.000e+00 *S 1.664e-02 1.664e-02 
pc_i\[15\] I *L 0.000e+00 *S 1.664e-02 1.664e-02 
pc_i\[14\] I *L 0.000e+00 *S 1.664e-02 1.664e-02 
pc_i\[13\] I *L 0.000e+00 *S 1.664e-02 1.664e-02 
pc_i\[12\] I *L 0.000e+00 *S 1.664e-02 1.664e-02 
pc_i\[11\] I *L 0.000e+00 *S 1.664e-02 1.664e-02 
pc_i\[10\] I *L 0.000e+00 *S 1.664e-02 1.664e-02 
pc_i\[9\] I *L 0.000e+00 *S 1.664e-02 1.664e-02 
pc_i\[8\] I *L 0.000e+00 *S 1.664e-02 1.664e-02 
pc_i\[7\] I *L 0.000e+00 *S 1.664e-02 1.664e-02 
pc_i\[6\] I *L 0.000e+00 *S 1.664e-02 1.664e-02 
pc_i\[5\] I *L 0.000e+00 *S 1.664e-02 1.664e-02 
pc_i\[4\] I *L 0.000e+00 *S 1.664e-02 1.664e-02 
pc_i\[3\] I *L 0.000e+00 *S 1.664e-02 1.664e-02 
pc_i\[2\] I *L 0.000e+00 *S 1.664e-02 1.664e-02 
pc_i\[1\] I *L 0.000e+00 *S 1.664e-02 1.664e-02 
pc_i\[0\] I *L 0.000e+00 *S 1.664e-02 1.664e-02 
inst_i\[31\] I *L 0.000e+00 *S 1.664e-02 1.664e-02 
inst_i\[30\] I *L 0.000e+00 *S 1.664e-02 1.664e-02 
inst_i\[29\] I *L 0.000e+00 *S 1.664e-02 1.664e-02 
inst_i\[28\] I *L 0.000e+00 *S 1.664e-02 1.664e-02 
inst_i\[27\] I *L 0.000e+00 *S 1.664e-02 1.664e-02 
inst_i\[26\] I *L 0.000e+00 *S 1.664e-02 1.664e-02 
inst_i\[25\] I *L 0.000e+00 *S 1.664e-02 1.664e-02 
inst_i\[24\] I *L 0.000e+00 *S 1.664e-02 1.664e-02 
inst_i\[23\] I *L 0.000e+00 *S 1.664e-02 1.664e-02 
inst_i\[22\] I *L 0.000e+00 *S 1.664e-02 1.664e-02 
inst_i\[21\] I *L 0.000e+00 *S 1.664e-02 1.664e-02 
inst_i\[20\] I *L 0.000e+00 *S 1.664e-02 1.664e-02 
inst_i\[19\] I *L 0.000e+00 *S 1.664e-02 1.664e-02 
inst_i\[18\] I *L 0.000e+00 *S 1.664e-02 1.664e-02 
inst_i\[17\] I *L 0.000e+00 *S 1.664e-02 1.664e-02 
inst_i\[16\] I *L 0.000e+00 *S 1.664e-02 1.664e-02 
inst_i\[15\] I *L 0.000e+00 *S 1.664e-02 1.664e-02 
inst_i\[14\] I *L 0.000e+00 *S 1.664e-02 1.664e-02 
inst_i\[13\] I *L 0.000e+00 *S 1.664e-02 1.664e-02 
inst_i\[12\] I *L 0.000e+00 *S 1.664e-02 1.664e-02 
inst_i\[11\] I *L 0.000e+00 *S 1.664e-02 1.664e-02 
inst_i\[10\] I *L 0.000e+00 *S 1.664e-02 1.664e-02 
inst_i\[9\] I *L 0.000e+00 *S 1.664e-02 1.664e-02 
inst_i\[8\] I *L 0.000e+00 *S 1.664e-02 1.664e-02 
inst_i\[7\] I *L 0.000e+00 *S 1.664e-02 1.664e-02 
inst_i\[6\] I *L 0.000e+00 *S 1.664e-02 1.664e-02 
inst_i\[5\] I *L 0.000e+00 *S 1.664e-02 1.664e-02 
inst_i\[4\] I *L 0.000e+00 *S 1.664e-02 1.664e-02 
inst_i\[3\] I *L 0.000e+00 *S 1.664e-02 1.664e-02 
inst_i\[2\] I *L 0.000e+00 *S 1.664e-02 1.664e-02 
inst_i\[1\] I *L 0.000e+00 *S 1.664e-02 1.664e-02 
inst_i\[0\] I *L 0.000e+00 *S 1.664e-02 1.664e-02 
rob_idx_alu_i\[4\] I *L 0.000e+00 *S 5.132e-02 5.132e-02 
rob_idx_alu_i\[3\] I *L 0.000e+00 *S 5.157e-02 5.157e-02 
rob_idx_alu_i\[2\] I *L 0.000e+00 *S 8.686e-02 8.686e-02 
rob_idx_alu_i\[1\] I *L 0.000e+00 *S 1.059e-01 1.059e-01 
rob_idx_alu_i\[0\] I *L 0.000e+00 *S 7.003e-02 7.003e-02 
reg_value_alu_i\[31\] I *L 0.000e+00 *S 6.440e-01 6.440e-01 
reg_value_alu_i\[30\] I *L 0.000e+00 *S 6.347e-01 6.347e-01 
reg_value_alu_i\[29\] I *L 0.000e+00 *S 6.445e-01 6.445e-01 
reg_value_alu_i\[28\] I *L 0.000e+00 *S 6.423e-01 6.423e-01 
reg_value_alu_i\[27\] I *L 0.000e+00 *S 6.449e-01 6.449e-01 
reg_value_alu_i\[26\] I *L 0.000e+00 *S 6.470e-01 6.470e-01 
reg_value_alu_i\[25\] I *L 0.000e+00 *S 6.441e-01 6.441e-01 
reg_value_alu_i\[24\] I *L 0.000e+00 *S 6.342e-01 6.342e-01 
reg_value_alu_i\[23\] I *L 0.000e+00 *S 6.342e-01 6.342e-01 
reg_value_alu_i\[22\] I *L 0.000e+00 *S 6.443e-01 6.443e-01 
reg_value_alu_i\[21\] I *L 0.000e+00 *S 6.337e-01 6.337e-01 
reg_value_alu_i\[20\] I *L 0.000e+00 *S 6.345e-01 6.345e-01 
reg_value_alu_i\[19\] I *L 0.000e+00 *S 6.354e-01 6.354e-01 
reg_value_alu_i\[18\] I *L 0.000e+00 *S 6.342e-01 6.342e-01 
reg_value_alu_i\[17\] I *L 0.000e+00 *S 6.446e-01 6.446e-01 
reg_value_alu_i\[16\] I *L 0.000e+00 *S 6.450e-01 6.450e-01 
reg_value_alu_i\[15\] I *L 0.000e+00 *S 6.338e-01 6.338e-01 
reg_value_alu_i\[14\] I *L 0.000e+00 *S 6.464e-01 6.464e-01 
reg_value_alu_i\[13\] I *L 0.000e+00 *S 6.435e-01 6.435e-01 
reg_value_alu_i\[12\] I *L 0.000e+00 *S 6.438e-01 6.438e-01 
reg_value_alu_i\[11\] I *L 0.000e+00 *S 6.450e-01 6.450e-01 
reg_value_alu_i\[10\] I *L 0.000e+00 *S 6.459e-01 6.459e-01 
reg_value_alu_i\[9\] I *L 0.000e+00 *S 6.436e-01 6.436e-01 
reg_value_alu_i\[8\] I *L 0.000e+00 *S 6.438e-01 6.438e-01 
reg_value_alu_i\[7\] I *L 0.000e+00 *S 6.345e-01 6.345e-01 
reg_value_alu_i\[6\] I *L 0.000e+00 *S 6.430e-01 6.430e-01 
reg_value_alu_i\[5\] I *L 0.000e+00 *S 6.440e-01 6.440e-01 
reg_value_alu_i\[4\] I *L 0.000e+00 *S 6.440e-01 6.440e-01 
reg_value_alu_i\[3\] I *L 0.000e+00 *S 6.446e-01 6.446e-01 
reg_value_alu_i\[2\] I *L 0.000e+00 *S 6.430e-01 6.430e-01 
reg_value_alu_i\[1\] I *L 0.000e+00 *S 6.415e-01 6.415e-01 
reg_value_alu_i\[0\] I *L 0.000e+00 *S 6.337e-01 6.337e-01 
rob_idx_lsu_i\[4\] I *L 0.000e+00 *S 4.610e-02 4.610e-02 
rob_idx_lsu_i\[3\] I *L 0.000e+00 *S 5.839e-02 5.839e-02 
rob_idx_lsu_i\[2\] I *L 0.000e+00 *S 7.105e-02 7.105e-02 
rob_idx_lsu_i\[1\] I *L 0.000e+00 *S 3.385e-02 3.385e-02 
rob_idx_lsu_i\[0\] I *L 0.000e+00 *S 1.071e-01 1.071e-01 
reg_value_lsu_i\[31\] I *L 0.000e+00 *S 1.625e-02 1.625e-02 
reg_value_lsu_i\[30\] I *L 0.000e+00 *S 1.625e-02 1.625e-02 
reg_value_lsu_i\[29\] I *L 0.000e+00 *S 1.625e-02 1.625e-02 
reg_value_lsu_i\[28\] I *L 0.000e+00 *S 1.625e-02 1.625e-02 
reg_value_lsu_i\[27\] I *L 0.000e+00 *S 1.625e-02 1.625e-02 
reg_value_lsu_i\[26\] I *L 0.000e+00 *S 1.625e-02 1.625e-02 
reg_value_lsu_i\[25\] I *L 0.000e+00 *S 1.625e-02 1.625e-02 
reg_value_lsu_i\[24\] I *L 0.000e+00 *S 1.625e-02 1.625e-02 
reg_value_lsu_i\[23\] I *L 0.000e+00 *S 1.625e-02 1.625e-02 
reg_value_lsu_i\[22\] I *L 0.000e+00 *S 1.625e-02 1.625e-02 
reg_value_lsu_i\[21\] I *L 0.000e+00 *S 1.625e-02 1.625e-02 
reg_value_lsu_i\[20\] I *L 0.000e+00 *S 1.625e-02 1.625e-02 
reg_value_lsu_i\[19\] I *L 0.000e+00 *S 1.625e-02 1.625e-02 
reg_value_lsu_i\[18\] I *L 0.000e+00 *S 1.625e-02 1.625e-02 
reg_value_lsu_i\[17\] I *L 0.000e+00 *S 1.625e-02 1.625e-02 
reg_value_lsu_i\[16\] I *L 0.000e+00 *S 1.625e-02 1.625e-02 
reg_value_lsu_i\[15\] I *L 0.000e+00 *S 1.625e-02 1.625e-02 
reg_value_lsu_i\[14\] I *L 0.000e+00 *S 1.625e-02 1.625e-02 
reg_value_lsu_i\[13\] I *L 0.000e+00 *S 1.625e-02 1.625e-02 
reg_value_lsu_i\[12\] I *L 0.000e+00 *S 1.625e-02 1.625e-02 
reg_value_lsu_i\[11\] I *L 0.000e+00 *S 1.625e-02 1.625e-02 
reg_value_lsu_i\[10\] I *L 0.000e+00 *S 1.625e-02 1.625e-02 
reg_value_lsu_i\[9\] I *L 0.000e+00 *S 1.625e-02 1.625e-02 
reg_value_lsu_i\[8\] I *L 0.000e+00 *S 1.625e-02 1.625e-02 
reg_value_lsu_i\[7\] I *L 0.000e+00 *S 1.625e-02 1.625e-02 
reg_value_lsu_i\[6\] I *L 0.000e+00 *S 1.625e-02 1.625e-02 
reg_value_lsu_i\[5\] I *L 0.000e+00 *S 1.625e-02 1.625e-02 
reg_value_lsu_i\[4\] I *L 0.000e+00 *S 1.625e-02 1.625e-02 
reg_value_lsu_i\[3\] I *L 0.000e+00 *S 1.625e-02 1.625e-02 
reg_value_lsu_i\[2\] I *L 0.000e+00 *S 1.625e-02 1.625e-02 
reg_value_lsu_i\[1\] I *L 0.000e+00 *S 1.625e-02 1.625e-02 
reg_value_lsu_i\[0\] I *L 0.000e+00 *S 1.625e-02 1.625e-02 
rob_idx_mul_i\[4\] I *L 0.000e+00 *S 4.610e-02 4.610e-02 
rob_idx_mul_i\[3\] I *L 0.000e+00 *S 5.839e-02 5.839e-02 
rob_idx_mul_i\[2\] I *L 0.000e+00 *S 7.001e-02 7.001e-02 
rob_idx_mul_i\[1\] I *L 0.000e+00 *S 1.081e-01 1.081e-01 
rob_idx_mul_i\[0\] I *L 0.000e+00 *S 3.385e-02 3.385e-02 
reg_value_mul_i\[31\] I *L 0.000e+00 *S 6.325e-01 6.325e-01 
reg_value_mul_i\[30\] I *L 0.000e+00 *S 6.417e-01 6.417e-01 
reg_value_mul_i\[29\] I *L 0.000e+00 *S 6.326e-01 6.326e-01 
reg_value_mul_i\[28\] I *L 0.000e+00 *S 6.328e-01 6.328e-01 
reg_value_mul_i\[27\] I *L 0.000e+00 *S 6.328e-01 6.328e-01 
reg_value_mul_i\[26\] I *L 0.000e+00 *S 6.321e-01 6.321e-01 
reg_value_mul_i\[25\] I *L 0.000e+00 *S 6.323e-01 6.323e-01 
reg_value_mul_i\[24\] I *L 0.000e+00 *S 6.429e-01 6.429e-01 
reg_value_mul_i\[23\] I *L 0.000e+00 *S 6.436e-01 6.436e-01 
reg_value_mul_i\[22\] I *L 0.000e+00 *S 6.321e-01 6.321e-01 
reg_value_mul_i\[21\] I *L 0.000e+00 *S 6.447e-01 6.447e-01 
reg_value_mul_i\[20\] I *L 0.000e+00 *S 6.412e-01 6.412e-01 
reg_value_mul_i\[19\] I *L 0.000e+00 *S 6.397e-01 6.397e-01 
reg_value_mul_i\[18\] I *L 0.000e+00 *S 6.416e-01 6.416e-01 
reg_value_mul_i\[17\] I *L 0.000e+00 *S 6.325e-01 6.325e-01 
reg_value_mul_i\[16\] I *L 0.000e+00 *S 6.321e-01 6.321e-01 
reg_value_mul_i\[15\] I *L 0.000e+00 *S 6.439e-01 6.439e-01 
reg_value_mul_i\[14\] I *L 0.000e+00 *S 6.326e-01 6.326e-01 
reg_value_mul_i\[13\] I *L 0.000e+00 *S 6.323e-01 6.323e-01 
reg_value_mul_i\[12\] I *L 0.000e+00 *S 6.326e-01 6.326e-01 
reg_value_mul_i\[11\] I *L 0.000e+00 *S 6.321e-01 6.321e-01 
reg_value_mul_i\[10\] I *L 0.000e+00 *S 6.325e-01 6.325e-01 
reg_value_mul_i\[9\] I *L 0.000e+00 *S 6.328e-01 6.328e-01 
reg_value_mul_i\[8\] I *L 0.000e+00 *S 6.326e-01 6.326e-01 
reg_value_mul_i\[7\] I *L 0.000e+00 *S 6.412e-01 6.412e-01 
reg_value_mul_i\[6\] I *L 0.000e+00 *S 6.321e-01 6.321e-01 
reg_value_mul_i\[5\] I *L 0.000e+00 *S 6.325e-01 6.325e-01 
reg_value_mul_i\[4\] I *L 0.000e+00 *S 6.325e-01 6.325e-01 
reg_value_mul_i\[3\] I *L 0.000e+00 *S 6.325e-01 6.325e-01 
reg_value_mul_i\[2\] I *L 0.000e+00 *S 6.321e-01 6.321e-01 
reg_value_mul_i\[1\] I *L 0.000e+00 *S 6.323e-01 6.323e-01 
reg_value_mul_i\[0\] I *L 0.000e+00 *S 6.440e-01 6.440e-01 
empty_o O *L 2.469e+01 *S 2.849e-01 7.286e-02 
full_o O *L 2.469e+01 *S 2.320e-01 1.039e-01 
rob_idx_o\[4\] O *L 2.469e+01 *S 2.256e-01 8.909e-02 
rob_idx_o\[3\] O *L 2.469e+01 *S 2.424e-01 9.409e-02 
rob_idx_o\[2\] O *L 2.469e+01 *S 2.080e-01 8.371e-02 
rob_idx_o\[1\] O *L 2.469e+01 *S 2.200e-01 8.737e-02 
rob_idx_o\[0\] O *L 2.469e+01 *S 2.605e-01 9.917e-02 
commitment_valid_o O *L 2.469e+01 *S 1.923e-01 7.891e-02 
inst_committed_o\[31\] O *L 2.469e+01 *S 1.923e-01 7.891e-02 
inst_committed_o\[30\] O *L 2.469e+01 *S 1.923e-01 7.891e-02 
inst_committed_o\[29\] O *L 2.469e+01 *S 1.923e-01 7.891e-02 
inst_committed_o\[28\] O *L 2.469e+01 *S 1.923e-01 7.891e-02 
inst_committed_o\[27\] O *L 2.469e+01 *S 1.923e-01 7.891e-02 
inst_committed_o\[26\] O *L 2.469e+01 *S 1.923e-01 7.891e-02 
inst_committed_o\[25\] O *L 2.469e+01 *S 1.923e-01 7.891e-02 
inst_committed_o\[24\] O *L 2.469e+01 *S 1.923e-01 7.891e-02 
inst_committed_o\[23\] O *L 2.469e+01 *S 1.923e-01 7.891e-02 
inst_committed_o\[22\] O *L 2.469e+01 *S 1.923e-01 7.891e-02 
inst_committed_o\[21\] O *L 2.469e+01 *S 1.923e-01 7.891e-02 
inst_committed_o\[20\] O *L 2.469e+01 *S 1.923e-01 7.891e-02 
inst_committed_o\[19\] O *L 2.469e+01 *S 1.923e-01 7.891e-02 
inst_committed_o\[18\] O *L 2.469e+01 *S 1.923e-01 7.891e-02 
inst_committed_o\[17\] O *L 2.469e+01 *S 1.923e-01 7.891e-02 
inst_committed_o\[16\] O *L 2.469e+01 *S 1.923e-01 7.891e-02 
inst_committed_o\[15\] O *L 2.469e+01 *S 1.923e-01 7.891e-02 
inst_committed_o\[14\] O *L 2.469e+01 *S 1.923e-01 7.891e-02 
inst_committed_o\[13\] O *L 2.469e+01 *S 1.923e-01 7.891e-02 
inst_committed_o\[12\] O *L 2.469e+01 *S 1.923e-01 7.891e-02 
inst_committed_o\[11\] O *L 2.469e+01 *S 1.923e-01 7.891e-02 
inst_committed_o\[10\] O *L 2.469e+01 *S 1.923e-01 7.891e-02 
inst_committed_o\[9\] O *L 2.469e+01 *S 1.923e-01 7.891e-02 
inst_committed_o\[8\] O *L 2.469e+01 *S 1.923e-01 7.891e-02 
inst_committed_o\[7\] O *L 2.469e+01 *S 1.923e-01 7.891e-02 
inst_committed_o\[6\] O *L 2.469e+01 *S 1.923e-01 7.891e-02 
inst_committed_o\[5\] O *L 2.469e+01 *S 1.923e-01 7.891e-02 
inst_committed_o\[4\] O *L 2.469e+01 *S 1.923e-01 7.891e-02 
inst_committed_o\[3\] O *L 2.469e+01 *S 1.923e-01 7.891e-02 
inst_committed_o\[2\] O *L 2.469e+01 *S 1.923e-01 7.891e-02 
inst_committed_o\[1\] O *L 2.469e+01 *S 1.923e-01 7.891e-02 
inst_committed_o\[0\] O *L 2.469e+01 *S 1.923e-01 7.891e-02 
pc_committed_o\[31\] O *L 2.469e+01 *S 1.923e-01 7.891e-02 
pc_committed_o\[30\] O *L 2.469e+01 *S 1.923e-01 7.891e-02 
pc_committed_o\[29\] O *L 2.469e+01 *S 1.923e-01 7.891e-02 
pc_committed_o\[28\] O *L 2.469e+01 *S 1.923e-01 7.891e-02 
pc_committed_o\[27\] O *L 2.469e+01 *S 1.923e-01 7.891e-02 
pc_committed_o\[26\] O *L 2.469e+01 *S 1.923e-01 7.891e-02 
pc_committed_o\[25\] O *L 2.469e+01 *S 1.923e-01 7.891e-02 
pc_committed_o\[24\] O *L 2.469e+01 *S 1.923e-01 7.891e-02 
pc_committed_o\[23\] O *L 2.469e+01 *S 1.923e-01 7.891e-02 
pc_committed_o\[22\] O *L 2.469e+01 *S 1.923e-01 7.891e-02 
pc_committed_o\[21\] O *L 2.469e+01 *S 1.923e-01 7.891e-02 
pc_committed_o\[20\] O *L 2.469e+01 *S 1.923e-01 7.891e-02 
pc_committed_o\[19\] O *L 2.469e+01 *S 1.923e-01 7.891e-02 
pc_committed_o\[18\] O *L 2.469e+01 *S 1.923e-01 7.891e-02 
pc_committed_o\[17\] O *L 2.469e+01 *S 1.923e-01 7.891e-02 
pc_committed_o\[16\] O *L 2.469e+01 *S 1.923e-01 7.891e-02 
pc_committed_o\[15\] O *L 2.469e+01 *S 1.923e-01 7.891e-02 
pc_committed_o\[14\] O *L 2.469e+01 *S 1.923e-01 7.891e-02 
pc_committed_o\[13\] O *L 2.469e+01 *S 1.923e-01 7.891e-02 
pc_committed_o\[12\] O *L 2.469e+01 *S 1.923e-01 7.891e-02 
pc_committed_o\[11\] O *L 2.469e+01 *S 1.923e-01 7.891e-02 
pc_committed_o\[10\] O *L 2.469e+01 *S 1.923e-01 7.891e-02 
pc_committed_o\[9\] O *L 2.469e+01 *S 1.923e-01 7.891e-02 
pc_committed_o\[8\] O *L 2.469e+01 *S 1.923e-01 7.891e-02 
pc_committed_o\[7\] O *L 2.469e+01 *S 1.923e-01 7.891e-02 
pc_committed_o\[6\] O *L 2.469e+01 *S 1.923e-01 7.891e-02 
pc_committed_o\[5\] O *L 2.469e+01 *S 1.923e-01 7.891e-02 
pc_committed_o\[4\] O *L 2.469e+01 *S 1.923e-01 7.891e-02 
pc_committed_o\[3\] O *L 2.469e+01 *S 1.923e-01 7.891e-02 
pc_committed_o\[2\] O *L 2.469e+01 *S 1.923e-01 7.891e-02 
pc_committed_o\[1\] O *L 2.469e+01 *S 1.923e-01 7.891e-02 
pc_committed_o\[0\] O *L 2.469e+01 *S 1.923e-01 7.891e-02 
prd_addr_committed_o\[4\] O *L 2.469e+01 *S 1.923e-01 7.891e-02 
prd_addr_committed_o\[3\] O *L 2.469e+01 *S 1.923e-01 7.891e-02 
prd_addr_committed_o\[2\] O *L 2.469e+01 *S 1.923e-01 7.891e-02 
prd_addr_committed_o\[1\] O *L 2.469e+01 *S 1.923e-01 7.891e-02 
prd_addr_committed_o\[0\] O *L 2.469e+01 *S 1.923e-01 7.891e-02 
prd_value_committed_o\[31\] O *L 2.469e+01 *S 1.923e-01 7.891e-02 
prd_value_committed_o\[30\] O *L 2.469e+01 *S 1.923e-01 7.891e-02 
prd_value_committed_o\[29\] O *L 2.469e+01 *S 1.923e-01 7.891e-02 
prd_value_committed_o\[28\] O *L 2.469e+01 *S 1.923e-01 7.891e-02 
prd_value_committed_o\[27\] O *L 2.469e+01 *S 1.923e-01 7.891e-02 
prd_value_committed_o\[26\] O *L 2.469e+01 *S 1.923e-01 7.891e-02 
prd_value_committed_o\[25\] O *L 2.469e+01 *S 1.923e-01 7.891e-02 
prd_value_committed_o\[24\] O *L 2.469e+01 *S 1.923e-01 7.891e-02 
prd_value_committed_o\[23\] O *L 2.469e+01 *S 1.923e-01 7.891e-02 
prd_value_committed_o\[22\] O *L 2.469e+01 *S 1.923e-01 7.891e-02 
prd_value_committed_o\[21\] O *L 2.469e+01 *S 1.923e-01 7.891e-02 
prd_value_committed_o\[20\] O *L 2.469e+01 *S 1.923e-01 7.891e-02 
prd_value_committed_o\[19\] O *L 2.469e+01 *S 1.923e-01 7.891e-02 
prd_value_committed_o\[18\] O *L 2.469e+01 *S 1.923e-01 7.891e-02 
prd_value_committed_o\[17\] O *L 2.469e+01 *S 1.923e-01 7.891e-02 
prd_value_committed_o\[16\] O *L 2.469e+01 *S 1.923e-01 7.891e-02 
prd_value_committed_o\[15\] O *L 2.469e+01 *S 1.923e-01 7.891e-02 
prd_value_committed_o\[14\] O *L 2.469e+01 *S 1.923e-01 7.891e-02 
prd_value_committed_o\[13\] O *L 2.469e+01 *S 1.923e-01 7.891e-02 
prd_value_committed_o\[12\] O *L 2.469e+01 *S 1.923e-01 7.891e-02 
prd_value_committed_o\[11\] O *L 2.469e+01 *S 1.923e-01 7.891e-02 
prd_value_committed_o\[10\] O *L 2.469e+01 *S 1.923e-01 7.891e-02 
prd_value_committed_o\[9\] O *L 2.469e+01 *S 1.923e-01 7.891e-02 
prd_value_committed_o\[8\] O *L 2.469e+01 *S 1.923e-01 7.891e-02 
prd_value_committed_o\[7\] O *L 2.469e+01 *S 1.923e-01 7.891e-02 
prd_value_committed_o\[6\] O *L 2.469e+01 *S 1.923e-01 7.891e-02 
prd_value_committed_o\[5\] O *L 2.469e+01 *S 1.923e-01 7.891e-02 
prd_value_committed_o\[4\] O *L 2.469e+01 *S 1.923e-01 7.891e-02 
prd_value_committed_o\[3\] O *L 2.469e+01 *S 1.923e-01 7.891e-02 
prd_value_committed_o\[2\] O *L 2.469e+01 *S 1.923e-01 7.891e-02 
prd_value_committed_o\[1\] O *L 2.469e+01 *S 1.923e-01 7.891e-02 
prd_value_committed_o\[0\] O *L 2.469e+01 *S 1.923e-01 7.891e-02 

*R_NET allocate_req_i 2.492e+01
*DRIVER allocate_req_i
*CELL NULL
*C2_R1_C1 1.246e+01 1.144e-01 1.246e+01 
*LOADS
*RC cbuf_prd/U21:A 2.018e-02
*RC cbuf_prd/U46:B1 1.979e-02
*RC cbuf_pc/U57:A1 1.947e-02
*RC cbuf_pc/U58:A 2.018e-02
*RC cbuf_pc/U822:A2 1.989e-02
*RC U4442:A 2.018e-02
*RC U4473:A 1.961e-02
*RC U8383:B1 1.928e-02
*RC U8384:A1 1.947e-02
*RC cbuf_inst/U57:A1 1.947e-02
*RC cbuf_inst/U58:A 2.018e-02
*RC cbuf_inst/U823:A2 1.989e-02
*END

*R_NET update_req_alu_i 5.987e+00
*DRIVER update_req_alu_i
*CELL NULL
*C2_R1_C1 2.994e+00 2.308e-02 2.994e+00 
*LOADS
*RC U4858:A 1.559e-02
*RC U4931:A3 1.523e-02
*RC U6695:A2 1.524e-02
*END

*R_NET update_req_lsu_i 3.880e+00
*DRIVER update_req_lsu_i
*CELL NULL
*C2_R1_C1 1.940e+00 1.407e-02 1.940e+00 
*LOADS
*RC U4852:A1 1.349e-02
*RC U4892:A2 1.381e-02
*END

*R_NET update_req_mul_i 3.880e+00
*DRIVER update_req_mul_i
*CELL NULL
*C2_R1_C1 1.940e+00 1.407e-02 1.940e+00 
*LOADS
*RC U4867:A1 1.349e-02
*RC U4881:A2 1.381e-02
*END

*R_NET prd_addr_i\[4\] 1.878e+00
*DRIVER prd_addr_i\[4\]
*CELL NULL
*C2_R1_C1 9.390e-01 6.236e-03 9.390e-01 
*LOADS
*RC cbuf_prd/U198:A1 1.171e-02
*END

*R_NET prd_addr_i\[3\] 1.878e+00
*DRIVER prd_addr_i\[3\]
*CELL NULL
*C2_R1_C1 9.390e-01 6.236e-03 9.390e-01 
*LOADS
*RC cbuf_prd/U195:A1 1.171e-02
*END

*R_NET prd_addr_i\[2\] 1.878e+00
*DRIVER prd_addr_i\[2\]
*CELL NULL
*C2_R1_C1 9.390e-01 6.236e-03 9.390e-01 
*LOADS
*RC cbuf_prd/U192:A1 1.171e-02
*END

*R_NET prd_addr_i\[1\] 1.878e+00
*DRIVER prd_addr_i\[1\]
*CELL NULL
*C2_R1_C1 9.390e-01 6.236e-03 9.390e-01 
*LOADS
*RC cbuf_prd/U189:A1 1.171e-02
*END

*R_NET prd_addr_i\[0\] 1.878e+00
*DRIVER prd_addr_i\[0\]
*CELL NULL
*C2_R1_C1 9.390e-01 6.236e-03 9.390e-01 
*LOADS
*RC cbuf_prd/U185:A1 1.171e-02
*END

*R_NET pc_i\[31\] 1.923e+00
*DRIVER pc_i\[31\]
*CELL NULL
*C2_R1_C1 9.615e-01 6.236e-03 9.615e-01 
*LOADS
*RC cbuf_pc/U886:A2 1.199e-02
*END

*R_NET pc_i\[30\] 1.923e+00
*DRIVER pc_i\[30\]
*CELL NULL
*C2_R1_C1 9.615e-01 6.236e-03 9.615e-01 
*LOADS
*RC cbuf_pc/U884:A2 1.199e-02
*END

*R_NET pc_i\[29\] 1.923e+00
*DRIVER pc_i\[29\]
*CELL NULL
*C2_R1_C1 9.615e-01 6.236e-03 9.615e-01 
*LOADS
*RC cbuf_pc/U882:A2 1.199e-02
*END

*R_NET pc_i\[28\] 1.923e+00
*DRIVER pc_i\[28\]
*CELL NULL
*C2_R1_C1 9.615e-01 6.236e-03 9.615e-01 
*LOADS
*RC cbuf_pc/U880:A2 1.199e-02
*END

*R_NET pc_i\[27\] 1.923e+00
*DRIVER pc_i\[27\]
*CELL NULL
*C2_R1_C1 9.615e-01 6.236e-03 9.615e-01 
*LOADS
*RC cbuf_pc/U878:A2 1.199e-02
*END

*R_NET pc_i\[26\] 1.923e+00
*DRIVER pc_i\[26\]
*CELL NULL
*C2_R1_C1 9.615e-01 6.236e-03 9.615e-01 
*LOADS
*RC cbuf_pc/U876:A2 1.199e-02
*END

*R_NET pc_i\[25\] 1.923e+00
*DRIVER pc_i\[25\]
*CELL NULL
*C2_R1_C1 9.615e-01 6.236e-03 9.615e-01 
*LOADS
*RC cbuf_pc/U874:A2 1.199e-02
*END

*R_NET pc_i\[24\] 1.923e+00
*DRIVER pc_i\[24\]
*CELL NULL
*C2_R1_C1 9.615e-01 6.236e-03 9.615e-01 
*LOADS
*RC cbuf_pc/U872:A2 1.199e-02
*END

*R_NET pc_i\[23\] 1.923e+00
*DRIVER pc_i\[23\]
*CELL NULL
*C2_R1_C1 9.615e-01 6.236e-03 9.615e-01 
*LOADS
*RC cbuf_pc/U870:A2 1.199e-02
*END

*R_NET pc_i\[22\] 1.923e+00
*DRIVER pc_i\[22\]
*CELL NULL
*C2_R1_C1 9.615e-01 6.236e-03 9.615e-01 
*LOADS
*RC cbuf_pc/U868:A2 1.199e-02
*END

*R_NET pc_i\[21\] 1.923e+00
*DRIVER pc_i\[21\]
*CELL NULL
*C2_R1_C1 9.615e-01 6.236e-03 9.615e-01 
*LOADS
*RC cbuf_pc/U866:A2 1.199e-02
*END

*R_NET pc_i\[20\] 1.923e+00
*DRIVER pc_i\[20\]
*CELL NULL
*C2_R1_C1 9.615e-01 6.236e-03 9.615e-01 
*LOADS
*RC cbuf_pc/U864:A2 1.199e-02
*END

*R_NET pc_i\[19\] 1.923e+00
*DRIVER pc_i\[19\]
*CELL NULL
*C2_R1_C1 9.615e-01 6.236e-03 9.615e-01 
*LOADS
*RC cbuf_pc/U862:A2 1.199e-02
*END

*R_NET pc_i\[18\] 1.923e+00
*DRIVER pc_i\[18\]
*CELL NULL
*C2_R1_C1 9.615e-01 6.236e-03 9.615e-01 
*LOADS
*RC cbuf_pc/U860:A2 1.199e-02
*END

*R_NET pc_i\[17\] 1.923e+00
*DRIVER pc_i\[17\]
*CELL NULL
*C2_R1_C1 9.615e-01 6.236e-03 9.615e-01 
*LOADS
*RC cbuf_pc/U858:A2 1.199e-02
*END

*R_NET pc_i\[16\] 1.923e+00
*DRIVER pc_i\[16\]
*CELL NULL
*C2_R1_C1 9.615e-01 6.236e-03 9.615e-01 
*LOADS
*RC cbuf_pc/U856:A2 1.199e-02
*END

*R_NET pc_i\[15\] 1.923e+00
*DRIVER pc_i\[15\]
*CELL NULL
*C2_R1_C1 9.615e-01 6.236e-03 9.615e-01 
*LOADS
*RC cbuf_pc/U854:A2 1.199e-02
*END

*R_NET pc_i\[14\] 1.923e+00
*DRIVER pc_i\[14\]
*CELL NULL
*C2_R1_C1 9.615e-01 6.236e-03 9.615e-01 
*LOADS
*RC cbuf_pc/U852:A2 1.199e-02
*END

*R_NET pc_i\[13\] 1.923e+00
*DRIVER pc_i\[13\]
*CELL NULL
*C2_R1_C1 9.615e-01 6.236e-03 9.615e-01 
*LOADS
*RC cbuf_pc/U850:A2 1.199e-02
*END

*R_NET pc_i\[12\] 1.923e+00
*DRIVER pc_i\[12\]
*CELL NULL
*C2_R1_C1 9.615e-01 6.236e-03 9.615e-01 
*LOADS
*RC cbuf_pc/U848:A2 1.199e-02
*END

*R_NET pc_i\[11\] 1.923e+00
*DRIVER pc_i\[11\]
*CELL NULL
*C2_R1_C1 9.615e-01 6.236e-03 9.615e-01 
*LOADS
*RC cbuf_pc/U846:A2 1.199e-02
*END

*R_NET pc_i\[10\] 1.923e+00
*DRIVER pc_i\[10\]
*CELL NULL
*C2_R1_C1 9.615e-01 6.236e-03 9.615e-01 
*LOADS
*RC cbuf_pc/U844:A2 1.199e-02
*END

*R_NET pc_i\[9\] 1.923e+00
*DRIVER pc_i\[9\]
*CELL NULL
*C2_R1_C1 9.615e-01 6.236e-03 9.615e-01 
*LOADS
*RC cbuf_pc/U842:A2 1.199e-02
*END

*R_NET pc_i\[8\] 1.923e+00
*DRIVER pc_i\[8\]
*CELL NULL
*C2_R1_C1 9.615e-01 6.236e-03 9.615e-01 
*LOADS
*RC cbuf_pc/U840:A2 1.199e-02
*END

*R_NET pc_i\[7\] 1.923e+00
*DRIVER pc_i\[7\]
*CELL NULL
*C2_R1_C1 9.615e-01 6.236e-03 9.615e-01 
*LOADS
*RC cbuf_pc/U838:A2 1.199e-02
*END

*R_NET pc_i\[6\] 1.923e+00
*DRIVER pc_i\[6\]
*CELL NULL
*C2_R1_C1 9.615e-01 6.236e-03 9.615e-01 
*LOADS
*RC cbuf_pc/U836:A2 1.199e-02
*END

*R_NET pc_i\[5\] 1.923e+00
*DRIVER pc_i\[5\]
*CELL NULL
*C2_R1_C1 9.615e-01 6.236e-03 9.615e-01 
*LOADS
*RC cbuf_pc/U834:A2 1.199e-02
*END

*R_NET pc_i\[4\] 1.923e+00
*DRIVER pc_i\[4\]
*CELL NULL
*C2_R1_C1 9.615e-01 6.236e-03 9.615e-01 
*LOADS
*RC cbuf_pc/U832:A2 1.199e-02
*END

*R_NET pc_i\[3\] 1.923e+00
*DRIVER pc_i\[3\]
*CELL NULL
*C2_R1_C1 9.615e-01 6.236e-03 9.615e-01 
*LOADS
*RC cbuf_pc/U830:A2 1.199e-02
*END

*R_NET pc_i\[2\] 1.923e+00
*DRIVER pc_i\[2\]
*CELL NULL
*C2_R1_C1 9.615e-01 6.236e-03 9.615e-01 
*LOADS
*RC cbuf_pc/U828:A2 1.199e-02
*END

*R_NET pc_i\[1\] 1.923e+00
*DRIVER pc_i\[1\]
*CELL NULL
*C2_R1_C1 9.615e-01 6.236e-03 9.615e-01 
*LOADS
*RC cbuf_pc/U826:A2 1.199e-02
*END

*R_NET pc_i\[0\] 1.923e+00
*DRIVER pc_i\[0\]
*CELL NULL
*C2_R1_C1 9.615e-01 6.236e-03 9.615e-01 
*LOADS
*RC cbuf_pc/U823:A2 1.199e-02
*END

*R_NET inst_i\[31\] 1.923e+00
*DRIVER inst_i\[31\]
*CELL NULL
*C2_R1_C1 9.615e-01 6.236e-03 9.615e-01 
*LOADS
*RC cbuf_inst/U886:A2 1.199e-02
*END

*R_NET inst_i\[30\] 1.923e+00
*DRIVER inst_i\[30\]
*CELL NULL
*C2_R1_C1 9.615e-01 6.236e-03 9.615e-01 
*LOADS
*RC cbuf_inst/U884:A2 1.199e-02
*END

*R_NET inst_i\[29\] 1.923e+00
*DRIVER inst_i\[29\]
*CELL NULL
*C2_R1_C1 9.615e-01 6.236e-03 9.615e-01 
*LOADS
*RC cbuf_inst/U882:A2 1.199e-02
*END

*R_NET inst_i\[28\] 1.923e+00
*DRIVER inst_i\[28\]
*CELL NULL
*C2_R1_C1 9.615e-01 6.236e-03 9.615e-01 
*LOADS
*RC cbuf_inst/U880:A2 1.199e-02
*END

*R_NET inst_i\[27\] 1.923e+00
*DRIVER inst_i\[27\]
*CELL NULL
*C2_R1_C1 9.615e-01 6.236e-03 9.615e-01 
*LOADS
*RC cbuf_inst/U878:A2 1.199e-02
*END

*R_NET inst_i\[26\] 1.923e+00
*DRIVER inst_i\[26\]
*CELL NULL
*C2_R1_C1 9.615e-01 6.236e-03 9.615e-01 
*LOADS
*RC cbuf_inst/U876:A2 1.199e-02
*END

*R_NET inst_i\[25\] 1.923e+00
*DRIVER inst_i\[25\]
*CELL NULL
*C2_R1_C1 9.615e-01 6.236e-03 9.615e-01 
*LOADS
*RC cbuf_inst/U874:A2 1.199e-02
*END

*R_NET inst_i\[24\] 1.923e+00
*DRIVER inst_i\[24\]
*CELL NULL
*C2_R1_C1 9.615e-01 6.236e-03 9.615e-01 
*LOADS
*RC cbuf_inst/U872:A2 1.199e-02
*END

*R_NET inst_i\[23\] 1.923e+00
*DRIVER inst_i\[23\]
*CELL NULL
*C2_R1_C1 9.615e-01 6.236e-03 9.615e-01 
*LOADS
*RC cbuf_inst/U870:A2 1.199e-02
*END

*R_NET inst_i\[22\] 1.923e+00
*DRIVER inst_i\[22\]
*CELL NULL
*C2_R1_C1 9.615e-01 6.236e-03 9.615e-01 
*LOADS
*RC cbuf_inst/U868:A2 1.199e-02
*END

*R_NET inst_i\[21\] 1.923e+00
*DRIVER inst_i\[21\]
*CELL NULL
*C2_R1_C1 9.615e-01 6.236e-03 9.615e-01 
*LOADS
*RC cbuf_inst/U866:A2 1.199e-02
*END

*R_NET inst_i\[20\] 1.923e+00
*DRIVER inst_i\[20\]
*CELL NULL
*C2_R1_C1 9.615e-01 6.236e-03 9.615e-01 
*LOADS
*RC cbuf_inst/U864:A2 1.199e-02
*END

*R_NET inst_i\[19\] 1.923e+00
*DRIVER inst_i\[19\]
*CELL NULL
*C2_R1_C1 9.615e-01 6.236e-03 9.615e-01 
*LOADS
*RC cbuf_inst/U862:A2 1.199e-02
*END

*R_NET inst_i\[18\] 1.923e+00
*DRIVER inst_i\[18\]
*CELL NULL
*C2_R1_C1 9.615e-01 6.236e-03 9.615e-01 
*LOADS
*RC cbuf_inst/U860:A2 1.199e-02
*END

*R_NET inst_i\[17\] 1.923e+00
*DRIVER inst_i\[17\]
*CELL NULL
*C2_R1_C1 9.615e-01 6.236e-03 9.615e-01 
*LOADS
*RC cbuf_inst/U858:A2 1.199e-02
*END

*R_NET inst_i\[16\] 1.923e+00
*DRIVER inst_i\[16\]
*CELL NULL
*C2_R1_C1 9.615e-01 6.236e-03 9.615e-01 
*LOADS
*RC cbuf_inst/U856:A2 1.199e-02
*END

*R_NET inst_i\[15\] 1.923e+00
*DRIVER inst_i\[15\]
*CELL NULL
*C2_R1_C1 9.615e-01 6.236e-03 9.615e-01 
*LOADS
*RC cbuf_inst/U854:A2 1.199e-02
*END

*R_NET inst_i\[14\] 1.923e+00
*DRIVER inst_i\[14\]
*CELL NULL
*C2_R1_C1 9.615e-01 6.236e-03 9.615e-01 
*LOADS
*RC cbuf_inst/U852:A2 1.199e-02
*END

*R_NET inst_i\[13\] 1.923e+00
*DRIVER inst_i\[13\]
*CELL NULL
*C2_R1_C1 9.615e-01 6.236e-03 9.615e-01 
*LOADS
*RC cbuf_inst/U850:A2 1.199e-02
*END

*R_NET inst_i\[12\] 1.923e+00
*DRIVER inst_i\[12\]
*CELL NULL
*C2_R1_C1 9.615e-01 6.236e-03 9.615e-01 
*LOADS
*RC cbuf_inst/U848:A2 1.199e-02
*END

*R_NET inst_i\[11\] 1.923e+00
*DRIVER inst_i\[11\]
*CELL NULL
*C2_R1_C1 9.615e-01 6.236e-03 9.615e-01 
*LOADS
*RC cbuf_inst/U846:A2 1.199e-02
*END

*R_NET inst_i\[10\] 1.923e+00
*DRIVER inst_i\[10\]
*CELL NULL
*C2_R1_C1 9.615e-01 6.236e-03 9.615e-01 
*LOADS
*RC cbuf_inst/U844:A2 1.199e-02
*END

*R_NET inst_i\[9\] 1.923e+00
*DRIVER inst_i\[9\]
*CELL NULL
*C2_R1_C1 9.615e-01 6.236e-03 9.615e-01 
*LOADS
*RC cbuf_inst/U842:A2 1.199e-02
*END

*R_NET inst_i\[8\] 1.923e+00
*DRIVER inst_i\[8\]
*CELL NULL
*C2_R1_C1 9.615e-01 6.236e-03 9.615e-01 
*LOADS
*RC cbuf_inst/U840:A2 1.199e-02
*END

*R_NET inst_i\[7\] 1.923e+00
*DRIVER inst_i\[7\]
*CELL NULL
*C2_R1_C1 9.615e-01 6.236e-03 9.615e-01 
*LOADS
*RC cbuf_inst/U838:A2 1.199e-02
*END

*R_NET inst_i\[6\] 1.923e+00
*DRIVER inst_i\[6\]
*CELL NULL
*C2_R1_C1 9.615e-01 6.236e-03 9.615e-01 
*LOADS
*RC cbuf_inst/U836:A2 1.199e-02
*END

*R_NET inst_i\[5\] 1.923e+00
*DRIVER inst_i\[5\]
*CELL NULL
*C2_R1_C1 9.615e-01 6.236e-03 9.615e-01 
*LOADS
*RC cbuf_inst/U834:A2 1.199e-02
*END

*R_NET inst_i\[4\] 1.923e+00
*DRIVER inst_i\[4\]
*CELL NULL
*C2_R1_C1 9.615e-01 6.236e-03 9.615e-01 
*LOADS
*RC cbuf_inst/U832:A2 1.199e-02
*END

*R_NET inst_i\[3\] 1.923e+00
*DRIVER inst_i\[3\]
*CELL NULL
*C2_R1_C1 9.615e-01 6.236e-03 9.615e-01 
*LOADS
*RC cbuf_inst/U830:A2 1.199e-02
*END

*R_NET inst_i\[2\] 1.923e+00
*DRIVER inst_i\[2\]
*CELL NULL
*C2_R1_C1 9.615e-01 6.236e-03 9.615e-01 
*LOADS
*RC cbuf_inst/U828:A2 1.199e-02
*END

*R_NET inst_i\[1\] 1.923e+00
*DRIVER inst_i\[1\]
*CELL NULL
*C2_R1_C1 9.615e-01 6.236e-03 9.615e-01 
*LOADS
*RC cbuf_inst/U826:A2 1.199e-02
*END

*R_NET inst_i\[0\] 1.923e+00
*DRIVER inst_i\[0\]
*CELL NULL
*C2_R1_C1 9.615e-01 6.236e-03 9.615e-01 
*LOADS
*RC cbuf_inst/U824:A2 1.199e-02
*END

*R_NET rob_idx_alu_i\[4\] 5.930e+00
*DRIVER rob_idx_alu_i\[4\]
*CELL NULL
*C2_R1_C1 2.965e+00 2.308e-02 2.965e+00 
*LOADS
*RC U4860:A 1.559e-02
*RC U4931:A1 1.503e-02
*RC U5846:A1 1.501e-02
*END

*R_NET rob_idx_alu_i\[3\] 5.959e+00
*DRIVER rob_idx_alu_i\[3\]
*CELL NULL
*C2_R1_C1 2.979e+00 2.308e-02 2.979e+00 
*LOADS
*RC U4859:A1 1.557e-02
*RC U4931:A2 1.524e-02
*RC U6695:A1 1.503e-02
*END

*R_NET rob_idx_alu_i\[2\] 1.004e+01
*DRIVER rob_idx_alu_i\[2\]
*CELL NULL
*C2_R1_C1 5.018e+00 4.254e-02 5.018e+00 
*LOADS
*RC U4856:A 1.758e-02
*RC U4914:A1 1.694e-02
*RC U4930:A1 1.697e-02
*RC U5098:A1 1.697e-02
*RC U5203:A1 1.694e-02
*END

*R_NET rob_idx_alu_i\[1\] 1.223e+01
*DRIVER rob_idx_alu_i\[1\]
*CELL NULL
*C2_R1_C1 6.116e+00 5.299e-02 6.116e+00 
*LOADS
*RC U4855:A2 1.793e-02
*RC U4875:A1 1.837e-02
*RC U4890:A1 1.775e-02
*RC U4901:A2 1.800e-02
*RC U4930:A3 1.798e-02
*RC U5098:A2 1.800e-02
*END

*R_NET rob_idx_alu_i\[0\] 8.092e+00
*DRIVER rob_idx_alu_i\[0\]
*CELL NULL
*C2_R1_C1 4.046e+00 3.293e-02 4.046e+00 
*LOADS
*RC U4855:A1 1.688e-02
*RC U4874:A 1.690e-02
*RC U4901:A1 1.630e-02
*RC U4930:A2 1.653e-02
*END

*R_NET reg_value_alu_i\[31\] 7.441e+01
*DRIVER reg_value_alu_i\[31\]
*CELL NULL
*C2_R1_C1 3.720e+01 4.715e-01 3.720e+01 
*LOADS
*RC U5089:A2 3.456e-02
*RC U5198:A1 3.390e-02
*RC U5305:A1 3.502e-02
*RC U5410:A1 3.502e-02
*RC U5517:A1 3.390e-02
*RC U5623:B1 3.360e-02
*RC U5730:A1 3.390e-02