*SPEF "IEEE 1481-1999"
*DESIGN "core"
*DATE "Tue Jun  6 19:43:09 2023"
*VENDOR "SYNOPSYS INC"
*PROGRAM "Synopsys Design Compiler cmos"
*VERSION "T-2022.03-SP3"
*DESIGN_FLOW "SYNTHESIS"
*DIVIDER /
*DELIMITER :
*BUS_DELIMITER []
*T_UNIT 1.0 NS
*C_UNIT 0.0010 PF
*R_UNIT 1000.0 KOHM
*L_UNIT 1.0 HENRY

*PORTS

clk_i I *L 0.000e+00 *S 8.671e+03 8.671e+03 
reset_i I *L 0.000e+00 *S 0.000e+00 0.000e+00 
imem_addr_o\[7\] O *L 2.469e+01 *S 1.923e-01 7.891e-02 
imem_addr_o\[6\] O *L 2.469e+01 *S 2.085e-01 8.386e-02 
imem_addr_o\[5\] O *L 2.469e+01 *S 1.923e-01 7.891e-02 
imem_addr_o\[4\] O *L 2.469e+01 *S 2.085e-01 8.386e-02 
imem_addr_o\[3\] O *L 2.469e+01 *S 1.923e-01 7.891e-02 
imem_addr_o\[2\] O *L 2.469e+01 *S 2.281e-01 8.985e-02 
imem_addr_o\[1\] O *L 2.469e+01 *S 2.252e-01 8.896e-02 
imem_addr_o\[0\] O *L 2.469e+01 *S 2.611e-01 9.935e-02 
imem_inst_i\[31\] I *L 0.000e+00 *S 2.804e-02 2.804e-02 
imem_inst_i\[30\] I *L 0.000e+00 *S 2.764e-02 2.764e-02 
imem_inst_i\[29\] I *L 0.000e+00 *S 2.740e-02 2.740e-02 
imem_inst_i\[28\] I *L 0.000e+00 *S 2.715e-02 2.715e-02 
imem_inst_i\[27\] I *L 0.000e+00 *S 2.804e-02 2.804e-02 
imem_inst_i\[26\] I *L 0.000e+00 *S 2.764e-02 2.764e-02 
imem_inst_i\[25\] I *L 0.000e+00 *S 2.740e-02 2.740e-02 
imem_inst_i\[24\] I *L 0.000e+00 *S 2.715e-02 2.715e-02 
imem_inst_i\[23\] I *L 0.000e+00 *S 2.804e-02 2.804e-02 
imem_inst_i\[22\] I *L 0.000e+00 *S 2.764e-02 2.764e-02 
imem_inst_i\[21\] I *L 0.000e+00 *S 2.740e-02 2.740e-02 
imem_inst_i\[20\] I *L 0.000e+00 *S 2.715e-02 2.715e-02 
imem_inst_i\[19\] I *L 0.000e+00 *S 2.804e-02 2.804e-02 
imem_inst_i\[18\] I *L 0.000e+00 *S 2.764e-02 2.764e-02 
imem_inst_i\[17\] I *L 0.000e+00 *S 2.740e-02 2.740e-02 
imem_inst_i\[16\] I *L 0.000e+00 *S 2.715e-02 2.715e-02 
imem_inst_i\[15\] I *L 0.000e+00 *S 2.804e-02 2.804e-02 
imem_inst_i\[14\] I *L 0.000e+00 *S 2.764e-02 2.764e-02 
imem_inst_i\[13\] I *L 0.000e+00 *S 2.740e-02 2.740e-02 
imem_inst_i\[12\] I *L 0.000e+00 *S 2.715e-02 2.715e-02 
imem_inst_i\[11\] I *L 0.000e+00 *S 2.804e-02 2.804e-02 
imem_inst_i\[10\] I *L 0.000e+00 *S 2.764e-02 2.764e-02 
imem_inst_i\[9\] I *L 0.000e+00 *S 2.740e-02 2.740e-02 
imem_inst_i\[8\] I *L 0.000e+00 *S 2.715e-02 2.715e-02 
imem_inst_i\[7\] I *L 0.000e+00 *S 2.804e-02 2.804e-02 
imem_inst_i\[6\] I *L 0.000e+00 *S 2.764e-02 2.764e-02 
imem_inst_i\[5\] I *L 0.000e+00 *S 2.740e-02 2.740e-02 
imem_inst_i\[4\] I *L 0.000e+00 *S 2.715e-02 2.715e-02 
imem_inst_i\[3\] I *L 0.000e+00 *S 2.804e-02 2.804e-02 
imem_inst_i\[2\] I *L 0.000e+00 *S 2.764e-02 2.764e-02 
imem_inst_i\[1\] I *L 0.000e+00 *S 2.740e-02 2.740e-02 
imem_inst_i\[0\] I *L 0.000e+00 *S 2.715e-02 2.715e-02 
dmem_csb_write_o O *L 2.469e+01 *S 3.216e-01 2.018e-01 
dmem_wmask_o\[3\] O *L 2.469e+01 *S 4.119e-01 8.535e-02 
dmem_wmask_o\[2\] O *L 2.469e+01 *S 2.167e-01 1.414e-01 
dmem_wmask_o\[1\] O *L 2.469e+01 *S 4.103e-01 6.443e-02 
dmem_wmask_o\[0\] O *L 2.469e+01 *S 2.167e-01 1.414e-01 
dmem_waddr_o\[7\] O *L 2.469e+01 *S 2.320e-01 1.039e-01 
dmem_waddr_o\[6\] O *L 2.469e+01 *S 2.320e-01 1.039e-01 
dmem_waddr_o\[5\] O *L 2.469e+01 *S 2.167e-01 1.414e-01 
dmem_waddr_o\[4\] O *L 2.469e+01 *S 2.167e-01 1.414e-01 
dmem_waddr_o\[3\] O *L 2.469e+01 *S 2.167e-01 1.414e-01 
dmem_waddr_o\[2\] O *L 2.469e+01 *S 2.167e-01 1.414e-01 
dmem_waddr_o\[1\] O *L 2.469e+01 *S 2.167e-01 1.414e-01 
dmem_waddr_o\[0\] O *L 2.469e+01 *S 2.167e-01 1.414e-01 
dmem_din_o\[31\] O *L 2.469e+01 *S 2.320e-01 1.039e-01 
dmem_din_o\[30\] O *L 2.469e+01 *S 2.320e-01 1.039e-01 
dmem_din_o\[29\] O *L 2.469e+01 *S 2.320e-01 1.039e-01 
dmem_din_o\[28\] O *L 2.469e+01 *S 2.320e-01 1.039e-01 
dmem_din_o\[27\] O *L 2.469e+01 *S 2.320e-01 1.039e-01 
dmem_din_o\[26\] O *L 2.469e+01 *S 2.320e-01 1.039e-01 
dmem_din_o\[25\] O *L 2.469e+01 *S 2.320e-01 1.039e-01 
dmem_din_o\[24\] O *L 2.469e+01 *S 2.320e-01 1.039e-01 
dmem_din_o\[23\] O *L 2.469e+01 *S 2.320e-01 1.039e-01 
dmem_din_o\[22\] O *L 2.469e+01 *S 2.320e-01 1.039e-01 
dmem_din_o\[21\] O *L 2.469e+01 *S 2.320e-01 1.039e-01 
dmem_din_o\[20\] O *L 2.469e+01 *S 2.320e-01 1.039e-01 
dmem_din_o\[19\] O *L 2.469e+01 *S 2.320e-01 1.039e-01 
dmem_din_o\[18\] O *L 2.469e+01 *S 2.320e-01 1.039e-01 
dmem_din_o\[17\] O *L 2.469e+01 *S 2.320e-01 1.039e-01 
dmem_din_o\[16\] O *L 2.469e+01 *S 2.320e-01 1.039e-01 
dmem_din_o\[15\] O *L 2.469e+01 *S 2.320e-01 1.039e-01 
dmem_din_o\[14\] O *L 2.469e+01 *S 2.320e-01 1.039e-01 
dmem_din_o\[13\] O *L 2.469e+01 *S 2.320e-01 1.039e-01 
dmem_din_o\[12\] O *L 2.469e+01 *S 2.320e-01 1.039e-01 
dmem_din_o\[11\] O *L 2.469e+01 *S 2.320e-01 1.039e-01 
dmem_din_o\[10\] O *L 2.469e+01 *S 2.320e-01 1.039e-01 
dmem_din_o\[9\] O *L 2.469e+01 *S 2.320e-01 1.039e-01 
dmem_din_o\[8\] O *L 2.469e+01 *S 2.320e-01 1.039e-01 
dmem_din_o\[7\] O *L 2.469e+01 *S 2.320e-01 1.039e-01 
dmem_din_o\[6\] O *L 2.469e+01 *S 2.320e-01 1.039e-01 
dmem_din_o\[5\] O *L 2.469e+01 *S 2.320e-01 1.039e-01 
dmem_din_o\[4\] O *L 2.469e+01 *S 2.320e-01 1.039e-01 
dmem_din_o\[3\] O *L 2.469e+01 *S 2.320e-01 1.039e-01 
dmem_din_o\[2\] O *L 2.469e+01 *S 2.320e-01 1.039e-01 
dmem_din_o\[1\] O *L 2.469e+01 *S 2.320e-01 1.039e-01 
dmem_din_o\[0\] O *L 2.469e+01 *S 2.320e-01 1.039e-01 
dmem_csb_read_o O *L 2.469e+01 *S 2.787e-01 1.776e-01 
dmem_raddr_o\[7\] O *L 2.469e+01 *S 2.320e-01 1.039e-01 
dmem_raddr_o\[6\] O *L 2.469e+01 *S 2.320e-01 1.039e-01 
dmem_raddr_o\[5\] O *L 2.469e+01 *S 2.167e-01 1.414e-01 
dmem_raddr_o\[4\] O *L 2.469e+01 *S 2.167e-01 1.414e-01 
dmem_raddr_o\[3\] O *L 2.469e+01 *S 2.167e-01 1.414e-01 
dmem_raddr_o\[2\] O *L 2.469e+01 *S 2.167e-01 1.414e-01 
dmem_raddr_o\[1\] O *L 2.469e+01 *S 2.167e-01 1.414e-01 
dmem_raddr_o\[0\] O *L 2.469e+01 *S 2.167e-01 1.414e-01 

*R_NET imem_addr_o\[7\] 2.500e+01
*DRIVER fetch/pc_reg_9_:Q
*CELL DFF_X1
*C2_R1_C1 1.250e+01 6.236e-03 1.250e+01 
*LOADS
*RC imem_addr_o\[7\] 1.559e-01
*END

*R_NET imem_addr_o\[6\] 2.696e+01
*DRIVER fetch/pc_reg_8_:Q
*CELL DFF_X1
*C2_R1_C1 1.348e+01 1.407e-02 1.348e+01 
*LOADS
*RC fetch/U46:A1 1.349e-02
*RC imem_addr_o\[6\] 1.762e-01
*END

*R_NET imem_addr_o\[5\] 2.500e+01
*DRIVER fetch/pc_reg_7_:Q
*CELL DFF_X1
*C2_R1_C1 1.250e+01 6.236e-03 1.250e+01 
*LOADS
*RC imem_addr_o\[5\] 1.559e-01
*END

*R_NET imem_addr_o\[4\] 2.696e+01
*DRIVER fetch/pc_reg_6_:Q
*CELL DFF_X1
*C2_R1_C1 1.348e+01 1.407e-02 1.348e+01 
*LOADS
*RC fetch/U44:A1 1.349e-02
*RC imem_addr_o\[4\] 1.762e-01
*END

*R_NET imem_addr_o\[3\] 2.500e+01
*DRIVER fetch/pc_reg_5_:Q
*CELL DFF_X1
*C2_R1_C1 1.250e+01 6.236e-03 1.250e+01 
*LOADS
*RC imem_addr_o\[3\] 1.559e-01
*END

*R_NET imem_addr_o\[2\] 2.933e+01
*DRIVER fetch/pc_reg_4_:Q
*CELL DFF_X1
*C2_R1_C1 1.467e+01 2.308e-02 1.467e+01 
*LOADS
*RC fetch/U42:A3 1.523e-02
*RC fetch/U79:S 1.751e-02
*RC imem_addr_o\[2\] 1.929e-01
*END

*R_NET imem_addr_o\[1\] 2.898e+01
*DRIVER fetch/pc_reg_3_:Q
*CELL DFF_X1
*C2_R1_C1 1.449e+01 2.308e-02 1.449e+01 
*LOADS
*RC fetch/U42:A1 1.503e-02
*RC fetch/U74:A1 1.501e-02
*RC imem_addr_o\[1\] 1.929e-01
*END

*R_NET imem_addr_o\[0\] 3.328e+01
*DRIVER fetch/pc_reg_2_:Q
*CELL DFF_X1
*C2_R1_C1 1.664e+01 4.254e-02 1.664e+01 
*LOADS
*RC fetch/U42:A2 1.720e-02
*RC fetch/U74:A2 1.732e-02
*RC fetch/U77:B1 1.735e-02
*RC fetch/U122:A1 1.759e-02
*RC imem_addr_o\[0\] 2.137e-01
*END

*R_NET imem_inst_i\[31\] 3.239e+00
*DRIVER imem_inst_i\[31\]
*CELL NULL
*C2_R1_C1 1.620e+00 1.407e-02 1.620e+00 
*LOADS
*RC fetch/U9:A1 8.752e-03
*RC fetch/U86:A1 1.404e-02
*END

*R_NET imem_inst_i\[30\] 3.194e+00
*DRIVER imem_inst_i\[30\]
*CELL NULL
*C2_R1_C1 1.597e+00 1.407e-02 1.597e+00 
*LOADS
*RC fetch/U35:A1 8.752e-03
*RC fetch/U86:A2 1.372e-02
*END

*R_NET imem_inst_i\[29\] 3.166e+00
*DRIVER imem_inst_i\[29\]
*CELL NULL
*C2_R1_C1 1.583e+00 1.407e-02 1.583e+00 
*LOADS
*RC fetch/U38:A1 8.752e-03
*RC fetch/U86:A3 1.352e-02
*END

*R_NET imem_inst_i\[28\] 3.137e+00
*DRIVER imem_inst_i\[28\]
*CELL NULL
*C2_R1_C1 1.568e+00 1.407e-02 1.568e+00 
*LOADS
*RC fetch/U33:A1 8.752e-03
*RC fetch/U86:A4 1.331e-02
*END

*R_NET imem_inst_i\[27\] 3.239e+00
*DRIVER imem_inst_i\[27\]
*CELL NULL
*C2_R1_C1 1.620e+00 1.407e-02 1.620e+00 
*LOADS
*RC fetch/U40:A1 8.752e-03
*RC fetch/U85:A1 1.404e-02
*END

*R_NET imem_inst_i\[26\] 3.194e+00
*DRIVER imem_inst_i\[26\]
*CELL NULL
*C2_R1_C1 1.597e+00 1.407e-02 1.597e+00 
*LOADS
*RC fetch/U32:A1 8.752e-03
*RC fetch/U85:A2 1.372e-02
*END

*R_NET imem_inst_i\[25\] 3.166e+00
*DRIVER imem_inst_i\[25\]
*CELL NULL
*C2_R1_C1 1.583e+00 1.407e-02 1.583e+00 
*LOADS
*RC fetch/U31:A1 8.752e-03
*RC fetch/U85:A3 1.352e-02
*END

*R_NET imem_inst_i\[24\] 3.137e+00
*DRIVER imem_inst_i\[24\]
*CELL NULL
*C2_R1_C1 1.568e+00 1.407e-02 1.568e+00 
*LOADS
*RC fetch/U37:A1 8.752e-03
*RC fetch/U85:A4 1.331e-02
*END

*R_NET imem_inst_i\[23\] 3.239e+00
*DRIVER imem_inst_i\[23\]
*CELL NULL
*C2_R1_C1 1.620e+00 1.407e-02 1.620e+00 
*LOADS
*RC fetch/U36:A1 8.752e-03
*RC fetch/U88:A1 1.404e-02
*END

*R_NET imem_inst_i\[22\] 3.194e+00
*DRIVER imem_inst_i\[22\]
*CELL NULL
*C2_R1_C1 1.597e+00 1.407e-02 1.597e+00 
*LOADS
*RC fetch/U39:A1 8.752e-03
*RC fetch/U88:A2 1.372e-02
*END

*R_NET imem_inst_i\[21\] 3.166e+00
*DRIVER imem_inst_i\[21\]
*CELL NULL
*C2_R1_C1 1.583e+00 1.407e-02 1.583e+00 
*LOADS
*RC fetch/U16:A1 8.752e-03
*RC fetch/U88:A3 1.352e-02
*END

*R_NET imem_inst_i\[20\] 3.137e+00
*DRIVER imem_inst_i\[20\]
*CELL NULL
*C2_R1_C1 1.568e+00 1.407e-02 1.568e+00 
*LOADS
*RC fetch/U15:A1 8.752e-03
*RC fetch/U88:A4 1.331e-02
*END

*R_NET imem_inst_i\[19\] 3.239e+00
*DRIVER imem_inst_i\[19\]
*CELL NULL
*C2_R1_C1 1.620e+00 1.407e-02 1.620e+00 
*LOADS
*RC fetch/U34:A1 8.752e-03
*RC fetch/U87:A1 1.404e-02
*END

*R_NET imem_inst_i\[18\] 3.194e+00
*DRIVER imem_inst_i\[18\]
*CELL NULL
*C2_R1_C1 1.597e+00 1.407e-02 1.597e+00 
*LOADS
*RC fetch/U21:A1 8.752e-03
*RC fetch/U87:A2 1.372e-02
*END

*R_NET imem_inst_i\[17\] 3.166e+00
*DRIVER imem_inst_i\[17\]
*CELL NULL
*C2_R1_C1 1.583e+00 1.407e-02 1.583e+00 
*LOADS
*RC fetch/U26:A1 8.752e-03
*RC fetch/U87:A3 1.352e-02
*END

*R_NET imem_inst_i\[16\] 3.137e+00
*DRIVER imem_inst_i\[16\]
*CELL NULL
*C2_R1_C1 1.568e+00 1.407e-02 1.568e+00 
*LOADS
*RC fetch/U20:A1 8.752e-03
*RC fetch/U87:A4 1.331e-02
*END

*R_NET imem_inst_i\[15\] 3.239e+00
*DRIVER imem_inst_i\[15\]
*CELL NULL
*C2_R1_C1 1.620e+00 1.407e-02 1.620e+00 
*LOADS
*RC fetch/U23:A1 8.752e-03
*RC fetch/U81:A1 1.404e-02
*END

*R_NET imem_inst_i\[14\] 3.194e+00
*DRIVER imem_inst_i\[14\]
*CELL NULL
*C2_R1_C1 1.597e+00 1.407e-02 1.597e+00 
*LOADS
*RC fetch/U22:A1 8.752e-03
*RC fetch/U81:A2 1.372e-02
*END

*R_NET imem_inst_i\[13\] 3.166e+00
*DRIVER imem_inst_i\[13\]
*CELL NULL
*C2_R1_C1 1.583e+00 1.407e-02 1.583e+00 
*LOADS
*RC fetch/U17:A1 8.752e-03
*RC fetch/U81:A3 1.352e-02
*END

*R_NET imem_inst_i\[12\] 3.137e+00
*DRIVER imem_inst_i\[12\]
*CELL NULL
*C2_R1_C1 1.568e+00 1.407e-02 1.568e+00 
*LOADS
*RC fetch/U28:A1 8.752e-03
*RC fetch/U81:A4 1.331e-02
*END

*R_NET imem_inst_i\[11\] 3.239e+00
*DRIVER imem_inst_i\[11\]
*CELL NULL
*C2_R1_C1 1.620e+00 1.407e-02 1.620e+00 
*LOADS
*RC fetch/U19:A1 8.752e-03
*RC fetch/U80:A1 1.404e-02
*END

*R_NET imem_inst_i\[10\] 3.194e+00
*DRIVER imem_inst_i\[10\]
*CELL NULL
*C2_R1_C1 1.597e+00 1.407e-02 1.597e+00 
*LOADS
*RC fetch/U30:A1 8.752e-03
*RC fetch/U80:A2 1.372e-02
*END

*R_NET imem_inst_i\[9\] 3.166e+00
*DRIVER imem_inst_i\[9\]
*CELL NULL
*C2_R1_C1 1.583e+00 1.407e-02 1.583e+00 
*LOADS
*RC fetch/U18:A1 8.752e-03
*RC fetch/U80:A3 1.352e-02
*END

*R_NET imem_inst_i\[8\] 3.137e+00
*DRIVER imem_inst_i\[8\]
*CELL NULL
*C2_R1_C1 1.568e+00 1.407e-02 1.568e+00 
*LOADS
*RC fetch/U24:A1 8.752e-03
*RC fetch/U80:A4 1.331e-02
*END

*R_NET imem_inst_i\[7\] 3.239e+00
*DRIVER imem_inst_i\[7\]
*CELL NULL
*C2_R1_C1 1.620e+00 1.407e-02 1.620e+00 
*LOADS
*RC fetch/U29:A1 8.752e-03
*RC fetch/U83:A1 1.404e-02
*END

*R_NET imem_inst_i\[6\] 3.194e+00
*DRIVER imem_inst_i\[6\]
*CELL NULL
*C2_R1_C1 1.597e+00 1.407e-02 1.597e+00 
*LOADS
*RC fetch/U27:A1 8.752e-03
*RC fetch/U83:A2 1.372e-02
*END

*R_NET imem_inst_i\[5\] 3.166e+00
*DRIVER imem_inst_i\[5\]
*CELL NULL
*C2_R1_C1 1.583e+00 1.407e-02 1.583e+00 
*LOADS
*RC fetch/U14:A1 8.752e-03
*RC fetch/U83:A3 1.352e-02
*END

*R_NET imem_inst_i\[4\] 3.137e+00
*DRIVER imem_inst_i\[4\]
*CELL NULL
*C2_R1_C1 1.568e+00 1.407e-02 1.568e+00 
*LOADS
*RC fetch/U13:A1 8.752e-03
*RC fetch/U83:A4 1.331e-02
*END

*R_NET imem_inst_i\[3\] 3.239e+00
*DRIVER imem_inst_i\[3\]
*CELL NULL
*C2_R1_C1 1.620e+00 1.407e-02 1.620e+00 
*LOADS
*RC fetch/U12:A1 8.752e-03
*RC fetch/U82:A1 1.404e-02
*END

*R_NET imem_inst_i\[2\] 3.194e+00
*DRIVER imem_inst_i\[2\]
*CELL NULL
*C2_R1_C1 1.597e+00 1.407e-02 1.597e+00 
*LOADS
*RC fetch/U11:A1 8.752e-03
*RC fetch/U82:A2 1.372e-02
*END

*R_NET imem_inst_i\[1\] 3.166e+00
*DRIVER imem_inst_i\[1\]
*CELL NULL
*C2_R1_C1 1.583e+00 1.407e-02 1.583e+00 
*LOADS
*RC fetch/U10:A1 8.752e-03
*RC fetch/U82:A3 1.352e-02
*END

*R_NET imem_inst_i\[0\] 3.137e+00
*DRIVER imem_inst_i\[0\]
*CELL NULL
*C2_R1_C1 1.568e+00 1.407e-02 1.568e+00 
*LOADS
*RC fetch/U25:A1 8.752e-03
*RC fetch/U82:A4 1.331e-02
*END

*R_NET dmem_csb_write_o 3.627e+01
*DRIVER lsu0/U27:ZN
*CELL NAND2_X1
*C2_R1_C1 1.814e+01 4.254e-02 1.814e+01 
*LOADS
*RC lsu0/U3:A2 3.155e-02
*RC lsu0/U4:A 2.906e-02
*RC lsu0/U30:A2 1.674e-02
*RC lsu0/U31:A 1.758e-02
*RC dmem_csb_write_o 2.137e-01
*END

*R_NET dmem_wmask_o\[3\] 2.615e+01
*DRIVER lsu0/U4:ZN
*CELL AOI211_X2
*C2_R1_C1 1.308e+01 1.407e-02 1.308e+01 
*LOADS
*RC lsu0/U38:A 7.789e-03
*RC dmem_wmask_o\[3\] 1.762e-01
*END

*R_NET dmem_wmask_o\[2\] 2.500e+01
*DRIVER lsu0/U38:Z
*CELL CLKBUF_X1
*C2_R1_C1 1.250e+01 6.236e-03 1.250e+01 
*LOADS
*RC dmem_wmask_o\[2\] 1.559e-01
*END

*R_NET dmem_wmask_o\[1\] 2.615e+01
*DRIVER lsu0/U3:ZN
*CELL NOR3_X2
*C2_R1_C1 1.308e+01 1.407e-02 1.308e+01 
*LOADS
*RC lsu0/U36:A 7.789e-03
*RC dmem_wmask_o\[1\] 1.762e-01
*END

*R_NET dmem_wmask_o\[0\] 2.500e+01
*DRIVER lsu0/U36:Z
*CELL CLKBUF_X1
*C2_R1_C1 1.250e+01 6.236e-03 1.250e+01 
*LOADS
*RC dmem_wmask_o\[0\] 1.559e-01
*END

*R_NET dmem_waddr_o\[5\] 2.500e+01
*DRIVER lsu0/U13:Z
*CELL CLKBUF_X1
*C2_R1_C1 1.250e+01 6.236e-03 1.250e+01 
*LOADS
*RC dmem_waddr_o\[5\] 1.559e-01
*END

*R_NET dmem_waddr_o\[4\] 2.500e+01
*DRIVER lsu0/U22:Z
*CELL CLKBUF_X1
*C2_R1_C1 1.250e+01 6.236e-03 1.250e+01 
*LOADS
*RC dmem_waddr_o\[4\] 1.559e-01
*END

*R_NET dmem_waddr_o\[3\] 2.500e+01
*DRIVER lsu0/U20:Z
*CELL CLKBUF_X1
*C2_R1_C1 1.250e+01 6.236e-03 1.250e+01 
*LOADS
*RC dmem_waddr_o\[3\] 1.559e-01
*END

*R_NET dmem_waddr_o\[2\] 2.500e+01
*DRIVER lsu0/U18:Z
*CELL CLKBUF_X1
*C2_R1_C1 1.250e+01 6.236e-03 1.250e+01 
*LOADS
*RC dmem_waddr_o\[2\] 1.559e-01
*END

*R_NET dmem_waddr_o\[1\] 2.500e+01
*DRIVER lsu0/U17:Z
*CELL CLKBUF_X1
*C2_R1_C1 1.250e+01 6.236e-03 1.250e+01 
*LOADS
*RC dmem_waddr_o\[1\] 1.559e-01
*END

*R_NET dmem_waddr_o\[0\] 2.500e+01
*DRIVER lsu0/U16:Z
*CELL CLKBUF_X1
*C2_R1_C1 1.250e+01 6.236e-03 1.250e+01 
*LOADS
*RC dmem_waddr_o\[0\] 1.559e-01
*END

*R_NET dmem_csb_read_o 3.119e+01
*DRIVER lsu0/U29:ZN
*CELL NAND2_X1
*C2_R1_C1 1.559e+01 3.293e-02 1.559e+01 
*LOADS
*RC lsu0/U30:B2 1.631e-02
*RC lsu0/U32:A 1.690e-02
*RC lsu0/U39:A1 1.688e-02
*RC dmem_csb_read_o 2.067e-01
*END

*R_NET dmem_raddr_o\[5\] 2.500e+01
*DRIVER lsu0/U23:Z
*CELL CLKBUF_X1
*C2_R1_C1 1.250e+01 6.236e-03 1.250e+01 
*LOADS
*RC dmem_raddr_o\[5\] 1.559e-01
*END

*R_NET dmem_raddr_o\[4\] 2.500e+01
*DRIVER lsu0/U21:Z
*CELL CLKBUF_X1
*C2_R1_C1 1.250e+01 6.236e-03 1.250e+01 
*LOADS
*RC dmem_raddr_o\[4\] 1.559e-01
*END

*R_NET dmem_raddr_o\[3\] 2.500e+01
*DRIVER lsu0/U19:Z
*CELL CLKBUF_X1
*C2_R1_C1 1.250e+01 6.236e-03 1.250e+01 
*LOADS
*RC dmem_raddr_o\[3\] 1.559e-01
*END

*R_NET dmem_raddr_o\[2\] 2.500e+01
*DRIVER lsu0/U15:Z
*CELL CLKBUF_X1
*C2_R1_C1 1.250e+01 6.236e-03 1.250e+01 
*LOADS
*RC dmem_raddr_o\[2\] 1.559e-01
*END

*R_NET dmem_raddr_o\[1\] 2.500e+01
*DRIVER lsu0/U14:Z
*CELL CLKBUF_X1
*C2_R1_C1 1.250e+01 6.236e-03 1.250e+01 
*LOADS
*RC dmem_raddr_o\[1\] 1.559e-01
*END

*R_NET dmem_raddr_o\[0\] 2.500e+01
*DRIVER lsu0/U12:Z
*CELL CLKBUF_X1
*C2_R1_C1 1.250e+01 6.236e-03 1.250e+01 
*LOADS
*RC dmem_raddr_o\[0\] 1.559e-01
*END

*R_NET alu_request 1.326e+01
*DRIVER decode/U8:ZN
*CELL AND2_X1
*C2_R1_C1 6.628e+00 8.097e-02 6.628e+00 
*LOADS
*RC reservation_station/pm_alu/U41:A 2.173e-02
*RC reservation_station/pm_alu/U47:A2 2.142e-02
*RC reservation_station/pm_alu/U80:C2 2.033e-02
*RC reservation_station/U106:A1 1.415e-02
*RC reservation_station/U107:A1 1.415e-02
*RC reservation_station/U108:A1 1.415e-02
*RC reservation_station/U122:A1 1.415e-02
*RC U77:A3 1.412e-02
*END

*R_NET lsu_request 1.327e+01
*DRIVER decode/U9:ZN
*CELL AND2_X1
*C2_R1_C1 6.635e+00 8.097e-02 6.635e+00 
*LOADS
*RC reservation_station/pm_lsu/U4:A 2.173e-02
*RC reservation_station/pm_lsu/U47:A2 2.142e-02
*RC reservation_station/pm_lsu/U80:C2 2.033e-02
*RC reservation_station/U30:A1 1.415e-02
*RC reservation_station/U31:A1 1.415e-02
*RC reservation_station/U32:A1 1.415e-02
*RC reservation_station/U112:A1 1.415e-02
*RC U77:A2 1.427e-02
*END

*R_NET mul_request 1.327e+01
*DRIVER decode/U7:ZN
*CELL AND2_X1
*C2_R1_C1 6.637e+00 8.097e-02 6.637e+00 
*LOADS
*RC reservation_station/pm_mul/U39:A 2.173e-02
*RC reservation_station/pm_mul/U51:A2 2.142e-02
*RC reservation_station/pm_mul/U80:C2 2.033e-02
*RC reservation_station/U109:A1 1.415e-02
*RC reservation_station/U110:A1 1.415e-02
*RC reservation_station/U111:A1 1.415e-02
*RC reservation_station/U123:A1 1.415e-02
*RC U77:A1 1.431e-02
*END

*R_NET rs_alu_valid 1.881e+00
*DRIVER reservation_station/U119:ZN
*CELL OR4_X1
*C2_R1_C1 9.406e-01 6.236e-03 9.406e-01 
*LOADS
*RC U78:A1 1.173e-02
*END

*R_NET rs_lsu_valid 1.907e+00
*DRIVER reservation_station/U120:ZN
*CELL OR4_X1
*C2_R1_C1 9.537e-01 6.236e-03 9.537e-01 
*LOADS
*RC U78:A3 1.189e-02
*END

*R_NET rs_mul_valid 1.909e+00
*DRIVER reservation_station/U121:ZN
*CELL OR4_X1
*C2_R1_C1 9.544e-01 6.236e-03 9.544e-01 
*LOADS
*RC U78:A2 1.190e-02
*END

*R_NET fetch_stall 3.184e+01
*DRIVER U78:ZN
*CELL NAND3_X1
*C2_R1_C1 1.592e+01 1.680e-01 1.592e+01 
*LOADS
*RC fetch/U3:A1 1.636e-02
*RC fetch/U67:B1 2.434e-02
*RC fetch/U76:A1 2.379e-02
*RC fetch/U125:B1 2.434e-02
*RC fetch/U130:B1 2.434e-02
*RC fetch/U135:B1 2.434e-02
*RC fetch/U140:B1 2.434e-02
*RC fetch/U145:B1 2.434e-02
*RC fetch/U150:B1 2.434e-02
*RC fetch/U155:B1 2.434e-02
*RC fetch/U160:B1 2.434e-02
*RC fetch/U165:B1 2.434e-02
*RC fetch/U170:B1 2.434e-02
*RC fetch/U175:B1 2.434e-02
*RC fetch/U180:B1 2.434e-02
*END

*R_NET pc_fetch\[31\] 1.923e+00
*DRIVER fetch/pc_o_reg_31_:Q
*CELL DFF_X1
*C2_R1_C1 9.615e-01 6.236e-03 9.615e-01 
*LOADS
*RC reorder_buf/cbuf_pc/U81:A2 1.199e-02
*END

*R_NET pc_fetch\[30\] 1.923e+00
*DRIVER fetch/pc_o_reg_30_:Q
*CELL DFF_X1
*C2_R1_C1 9.615e-01 6.236e-03 9.615e-01 
*LOADS
*RC reorder_buf/cbuf_pc/U83:A2 1.199e-02
*END

*R_NET pc_fetch\[29\] 1.923e+00
*DRIVER fetch/pc_o_reg_29_:Q
*CELL DFF_X1
*C2_R1_C1 9.615e-01 6.236e-03 9.615e-01 
*LOADS
*RC reorder_buf/cbuf_pc/U85:A2 1.199e-02
*END

*R_NET pc_fetch\[28\] 1.923e+00
*DRIVER fetch/pc_o_reg_28_:Q
*CELL DFF_X1
*C2_R1_C1 9.615e-01 6.236e-03 9.615e-01 
*LOADS
*RC reorder_buf/cbuf_pc/U87:A2 1.199e-02
*END

*R_NET pc_fetch\[27\] 1.923e+00
*DRIVER fetch/pc_o_reg_27_:Q
*CELL DFF_X1
*C2_R1_C1 9.615e-01 6.236e-03 9.615e-01 
*LOADS
*RC reorder_buf/cbuf_pc/U89:A2 1.199e-02
*END

*R_NET pc_fetch\[26\] 1.923e+00
*DRIVER fetch/pc_o_reg_26_:Q
*CELL DFF_X1
*C2_R1_C1 9.615e-01 6.236e-03 9.615e-01 
*LOADS
*RC reorder_buf/cbuf_pc/U91:A2 1.199e-02
*END

*R_NET pc_fetch\[25\] 1.923e+00
*DRIVER fetch/pc_o_reg_25_:Q
*CELL DFF_X1
*C2_R1_C1 9.615e-01 6.236e-03 9.615e-01 
*LOADS
*RC reorder_buf/cbuf_pc/U93:A2 1.199e-02
*END

*R_NET pc_fetch\[24\] 1.923e+00
*DRIVER fetch/pc_o_reg_24_:Q
*CELL DFF_X1
*C2_R1_C1 9.615e-01 6.236e-03 9.615e-01 
*LOADS
*RC reorder_buf/cbuf_pc/U95:A2 1.199e-02
*END

*R_NET pc_fetch\[23\] 1.923e+00
*DRIVER fetch/pc_o_reg_23_:Q
*CELL DFF_X1
*C2_R1_C1 9.615e-01 6.236e-03 9.615e-01 
*LOADS
*RC reorder_buf/cbuf_pc/U97:A2 1.199e-02
*END

*R_NET pc_fetch\[22\] 1.923e+00
*DRIVER fetch/pc_o_reg_22_:Q
*CELL DFF_X1
*C2_R1_C1 9.615e-01 6.236e-03 9.615e-01 
*LOADS
*RC reorder_buf/cbuf_pc/U99:A2 1.199e-02
*END

*R_NET pc_fetch\[21\] 1.923e+00
*DRIVER fetch/pc_o_reg_21_:Q
*CELL DFF_X1
*C2_R1_C1 9.615e-01 6.236e-03 9.615e-01 
*LOADS
*RC reorder_buf/cbuf_pc/U101:A2 1.199e-02
*END

*R_NET pc_fetch\[20\] 1.923e+00
*DRIVER fetch/pc_o_reg_20_:Q
*CELL DFF_X1
*C2_R1_C1 9.615e-01 6.236e-03 9.615e-01 
*LOADS
*RC reorder_buf/cbuf_pc/U103:A2 1.199e-02
*END

*R_NET pc_fetch\[19\] 1.923e+00
*DRIVER fetch/pc_o_reg_19_:Q
*CELL DFF_X1
*C2_R1_C1 9.615e-01 6.236e-03 9.615e-01 
*LOADS
*RC reorder_buf/cbuf_pc/U105:A2 1.199e-02
*END

*R_NET pc_fetch\[18\] 1.923e+00
*DRIVER fetch/pc_o_reg_18_:Q
*CELL DFF_X1
*C2_R1_C1 9.615e-01 6.236e-03 9.615e-01 
*LOADS
*RC reorder_buf/cbuf_pc/U107:A2 1.199e-02
*END

*R_NET pc_fetch\[17\] 1.923e+00
*DRIVER fetch/pc_o_reg_17_:Q
*CELL DFF_X1
*C2_R1_C1 9.615e-01 6.236e-03 9.615e-01 
*LOADS
*RC reorder_buf/cbuf_pc/U109:A2 1.199e-02
*END

*R_NET pc_fetch\[16\] 1.923e+00
*DRIVER fetch/pc_o_reg_16_:Q
*CELL DFF_X1
*C2_R1_C1 9.615e-01 6.236e-03 9.615e-01 
*LOADS
*RC reorder_buf/cbuf_pc/U111:A2 1.199e-02
*END

*R_NET pc_fetch\[15\] 1.923e+00
*DRIVER fetch/pc_o_reg_15_:Q
*CELL DFF_X1
*C2_R1_C1 9.615e-01 6.236e-03 9.615e-01 
*LOADS
*RC reorder_buf/cbuf_pc/U113:A2 1.199e-02
*END

*R_NET pc_fetch\[14\] 1.923e+00
*DRIVER fetch/pc_o_reg_14_:Q
*CELL DFF_X1
*C2_R1_C1 9.615e-01 6.236e-03 9.615e-01 
*LOADS
*RC reorder_buf/cbuf_pc/U115:A2 1.199e-02
*END

*R_NET pc_fetch\[13\] 1.923e+00
*DRIVER fetch/pc_o_reg_13_:Q
*CELL DFF_X1
*C2_R1_C1 9.615e-01 6.236e-03 9.615e-01 
*LOADS
*RC reorder_buf/cbuf_pc/U117:A2 1.199e-02
*END

*R_NET pc_fetch\[12\] 1.923e+00
*DRIVER fetch/pc_o_reg_12_:Q
*CELL DFF_X1
*C2_R1_C1 9.615e-01 6.236e-03 9.615e-01 
*LOADS
*RC reorder_buf/cbuf_pc/U119:A2 1.199e-02
*END

*R_NET pc_fetch\[11\] 1.923e+00
*DRIVER fetch/pc_o_reg_11_:Q
*CELL DFF_X1
*C2_R1_C1 9.615e-01 6.236e-03 9.615e-01 
*LOADS
*RC reorder_buf/cbuf_pc/U121:A2 1.199e-02
*END

*R_NET pc_fetch\[10\] 1.923e+00
*DRIVER fetch/pc_o_reg_10_:Q
*CELL DFF_X1
*C2_R1_C1 9.615e-01 6.236e-03 9.615e-01 
*LOADS
*RC reorder_buf/cbuf_pc/U123:A2 1.199e-02
*END

*R_NET pc_fetch\[9\] 1.923e+00
*DRIVER fetch/pc_o_reg_9_:Q
*CELL DFF_X1
*C2_R1_C1 9.615e-01 6.236e-03 9.615e-01 
*LOADS
*RC reorder_buf/cbuf_pc/U125:A2 1.199e-02
*END

*R_NET pc_fetch\[8\] 1.923e+00
*DRIVER fetch/pc_o_reg_8_:Q
*CELL DFF_X1
*C2_R1_C1 9.615e-01 6.236e-03 9.615e-01 
*LOADS
*RC reorder_buf/cbuf_pc/U127:A2 1.199e-02
*END

*R_NET pc_fetch\[7\] 1.923e+00
*DRIVER fetch/pc_o_reg_7_:Q
*CELL DFF_X1
*C2_R1_C1 9.615e-01 6.236e-03 9.615e-01 
*LOADS
*RC reorder_buf/cbuf_pc/U129:A2 1.199e-02
*END

*R_NET pc_fetch\[6\] 1.923e+00
*DRIVER fetch/pc_o_reg_6_:Q
*CELL DFF_X1
*C2_R1_C1 9.615e-01 6.236e-03 9.615e-01 
*LOADS
*RC reorder_buf/cbuf_pc/U131:A2 1.199e-02
*END

*R_NET pc_fetch\[5\] 1.923e+00
*DRIVER fetch/pc_o_reg_5_:Q
*CELL DFF_X1
*C2_R1_C1 9.615e-01 6.236e-03 9.615e-01 
*LOADS
*RC reorder_buf/cbuf_pc/U133:A2 1.199e-02
*END

*R_NET pc_fetch\[4\] 1.923e+00
*DRIVER fetch/pc_o_reg_4_:Q
*CELL DFF_X1
*C2_R1_C1 9.615e-01 6.236e-03 9.615e-01 
*LOADS
*RC reorder_buf/cbuf_pc/U135:A2 1.199e-02
*END

*R_NET pc_fetch\[3\] 1.923e+00
*DRIVER fetch/pc_o_reg_3_:Q
*CELL DFF_X1
*C2_R1_C1 9.615e-01 6.236e-03 9.615e-01 
*LOADS
*RC reorder_buf/cbuf_pc/U137:A2 1.199e-02
*END

*R_NET pc_fetch\[2\] 1.923e+00
*DRIVER fetch/pc_o_reg_2_:Q
*CELL DFF_X1
*C2_R1_C1 9.615e-01 6.236e-03 9.615e-01 
*LOADS
*RC reorder_buf/cbuf_pc/U139:A2 1.199e-02
*END

*R_NET inst_fetch\[31\] 1.000e+01
*DRIVER fetch/inst_o_reg_31_:Q
*CELL DFF_X1
*C2_R1_C1 5.002e+00 4.254e-02 5.002e+00 
*LOADS
*RC reservation_station/genblk1_3__alu_entry/U99:B2 1.704e-02
*RC reservation_station/genblk1_2__alu_entry/U99:B2 1.704e-02
*RC reservation_station/genblk1_1__alu_entry/U97:B2 1.704e-02
*RC reservation_station/genblk1_0__alu_entry/U107:B2 1.704e-02
*RC decode/dec0/U3:A3 1.697e-02
*END

*R_NET inst_fetch\[30\] 9.976e+00
*DRIVER fetch/inst_o_reg_30_:Q
*CELL DFF_X1
*C2_R1_C1 4.988e+00 4.254e-02 4.988e+00 
*LOADS
*RC reservation_station/genblk1_3__alu_entry/U126:B2 1.704e-02
*RC reservation_station/genblk1_2__alu_entry/U101:B2 1.704e-02
*RC reservation_station/genblk1_1__alu_entry/U95:B2 1.704e-02
*RC reservation_station/genblk1_0__alu_entry/U105:B2 1.704e-02
*RC decode/dec0/U3:A4 1.673e-02
*END

*R_NET inst_fetch\[29\] 1.003e+01
*DRIVER fetch/inst_o_reg_29_:Q
*CELL DFF_X1
*C2_R1_C1 5.016e+00 4.254e-02 5.016e+00 
*LOADS
*RC reservation_station/genblk1_3__alu_entry/U90:B2 1.704e-02
*RC reservation_station/genblk1_2__alu_entry/U126:B2 1.704e-02
*RC reservation_station/genblk1_1__alu_entry/U93:B2 1.704e-02
*RC reservation_station/genblk1_0__alu_entry/U103:B2 1.704e-02
*RC decode/dec0/U3:A2 1.721e-02
*END

*R_NET inst_fetch\[28\] 9.344e+00
*DRIVER fetch/inst_o_reg_28_:Q
*CELL DFF_X1
*C2_R1_C1 4.672e+00 4.254e-02 4.672e+00 
*LOADS
*RC reservation_station/genblk1_3__alu_entry/U138:B2 1.704e-02
*RC reservation_station/genblk1_2__alu_entry/U138:B2 1.704e-02
*RC reservation_station/genblk1_1__alu_entry/U138:B2 1.704e-02
*RC reservation_station/genblk1_0__alu_entry/U138:B2 1.704e-02
*RC decode/dec0/U6:A1 1.135e-02
*END

*R_NET inst_fetch\[27\] 1.881e+01
*DRIVER fetch/inst_o_reg_27_:Q
*CELL DFF_X1
*C2_R1_C1 9.403e+00 9.102e-02 9.403e+00 
*LOADS
*RC reservation_station/genblk3_3__lsu_entry/U91:B2 2.106e-02
*RC reservation_station/genblk3_2__lsu_entry/U85:B2 2.106e-02
*RC reservation_station/genblk3_1__lsu_entry/U90:B2 2.106e-02
*RC reservation_station/genblk3_0__lsu_entry/U97:B2 2.106e-02
*RC reservation_station/genblk1_3__alu_entry/U94:B2 2.106e-02
*RC reservation_station/genblk1_2__alu_entry/U92:B2 2.106e-02
*RC reservation_station/genblk1_1__alu_entry/U92:B2 2.106e-02
*RC reservation_station/genblk1_0__alu_entry/U101:B2 2.106e-02
*RC decode/dec0/U3:A1 2.172e-02
*END

*R_NET inst_fetch\[26\] 1.807e+01
*DRIVER fetch/inst_o_reg_26_:Q
*CELL DFF_X1
*C2_R1_C1 9.034e+00 9.102e-02 9.034e+00 
*LOADS
*RC reservation_station/genblk3_3__lsu_entry/U96:B2 2.106e-02
*RC reservation_station/genblk3_2__lsu_entry/U100:B2 2.106e-02
*RC reservation_station/genblk3_1__lsu_entry/U101:B2 2.106e-02
*RC reservation_station/genblk3_0__lsu_entry/U95:B2 2.106e-02
*RC reservation_station/genblk1_3__alu_entry/U92:B2 2.106e-02
*RC reservation_station/genblk1_2__alu_entry/U128:B2 2.106e-02
*RC reservation_station/genblk1_1__alu_entry/U90:B2 2.106e-02
*RC reservation_station/genblk1_0__alu_entry/U99:B2 2.106e-02
*RC decode/dec0/U6:A2 1.426e-02
*END

*R_NET inst_fetch\[25\] 1.874e+01
*DRIVER fetch/inst_o_reg_25_:Q
*CELL DFF_X1
*C2_R1_C1 9.372e+00 9.102e-02 9.372e+00 
*LOADS
*RC reservation_station/genblk3_3__lsu_entry/U130:B2 2.106e-02
*RC reservation_station/genblk3_2__lsu_entry/U130:B2 2.106e-02
*RC reservation_station/genblk3_1__lsu_entry/U119:B2 2.106e-02
*RC reservation_station/genblk3_0__lsu_entry/U118:B2 2.106e-02
*RC reservation_station/genblk1_3__alu_entry/U88:B2 2.106e-02
*RC reservation_station/genblk1_2__alu_entry/U81:B2 2.106e-02
*RC reservation_station/genblk1_1__alu_entry/U68:B2 2.106e-02
*RC reservation_station/genblk1_0__alu_entry/U81:B2 2.106e-02
*RC decode/dec0/U5:A2 2.110e-02
*END

*R_NET inst_fetch\[24\] 1.810e+01
*DRIVER fetch/inst_o_reg_24_:Q
*CELL DFF_X1
*C2_R1_C1 9.049e+00 9.102e-02 9.049e+00 
*LOADS
*RC reservation_station/genblk3_3__lsu_entry/U106:B2 2.106e-02
*RC reservation_station/genblk3_2__lsu_entry/U128:B2 2.106e-02
*RC reservation_station/genblk3_1__lsu_entry/U121:B2 2.106e-02
*RC reservation_station/genblk3_0__lsu_entry/U128:B2 2.106e-02
*RC reservation_station/genblk1_3__alu_entry/U68:B2 2.106e-02
*RC reservation_station/genblk1_2__alu_entry/U83:B2 2.106e-02
*RC reservation_station/genblk1_1__alu_entry/U70:B2 2.106e-02
*RC reservation_station/genblk1_0__alu_entry/U68:B2 2.106e-02
*RC decode/U14:A2 1.458e-02
*END

*R_NET inst_fetch\[23\] 1.810e+01
*DRIVER fetch/inst_o_reg_23_:Q
*CELL DFF_X1
*C2_R1_C1 9.049e+00 9.102e-02 9.049e+00 
*LOADS
*RC reservation_station/genblk3_3__lsu_entry/U108:B2 2.106e-02
*RC reservation_station/genblk3_2__lsu_entry/U126:B2 2.106e-02
*RC reservation_station/genblk3_1__lsu_entry/U123:B2 2.106e-02
*RC reservation_station/genblk3_0__lsu_entry/U114:B2 2.106e-02
*RC reservation_station/genblk1_3__alu_entry/U15:B2 2.106e-02
*RC reservation_station/genblk1_2__alu_entry/U14:B2 2.106e-02
*RC reservation_station/genblk1_1__alu_entry/U25:B2 2.106e-02
*RC reservation_station/genblk1_0__alu_entry/U31:B2 2.106e-02
*RC decode/U13:A2 1.458e-02
*END

*R_NET inst_fetch\[22\] 1.810e+01
*DRIVER fetch/inst_o_reg_22_:Q
*CELL DFF_X1
*C2_R1_C1 9.049e+00 9.102e-02 9.049e+00 
*LOADS
*RC reservation_station/genblk3_3__lsu_entry/U110:B2 2.106e-02
*RC reservation_station/genblk3_2__lsu_entry/U124:B2 2.106e-02
*RC reservation_station/genblk3_1__lsu_entry/U125:B2 2.106e-02
*RC reservation_station/genblk3_0__lsu_entry/U112:B2 2.106e-02
*RC reservation_station/genblk1_3__alu_entry/U26:B2 2.106e-02
*RC reservation_station/genblk1_2__alu_entry/U28:B2 2.106e-02
*RC reservation_station/genblk1_1__alu_entry/U27:B2 2.106e-02
*RC reservation_station/genblk1_0__alu_entry/U33:B2 2.106e-02
*RC decode/U12:A2 1.458e-02
*END

*R_NET inst_fetch\[21\] 1.810e+01
*DRIVER fetch/inst_o_reg_21_:Q
*CELL DFF_X1
*C2_R1_C1 9.049e+00 9.102e-02 9.049e+00 
*LOADS
*RC reservation_station/genblk3_3__lsu_entry/U27:B2 2.106e-02
*RC reservation_station/genblk3_2__lsu_entry/U15:B2 2.106e-02
*RC reservation_station/genblk3_1__lsu_entry/U29:B2 2.106e-02
*RC reservation_station/genblk3_0__lsu_entry/U18:B2 2.106e-02
*RC reservation_station/genblk1_3__alu_entry/U18:B2 2.106e-02
*RC reservation_station/genblk1_2__alu_entry/U16:B2 2.106e-02
*RC reservation_station/genblk1_1__alu_entry/U29:B2 2.106e-02
*RC reservation_station/genblk1_0__alu_entry/U16:B2 2.106e-02
*RC decode/U11:A2 1.458e-02
*END

*R_NET inst_fetch\[20\] 1.810e+01
*DRIVER fetch/inst_o_reg_20_:Q
*CELL DFF_X1
*C2_R1_C1 9.049e+00 9.102e-02 9.049e+00 
*LOADS
*RC reservation_station/genblk3_3__lsu_entry/U23:B2 2.106e-02
*RC reservation_station/genblk3_2__lsu_entry/U24:B2 2.106e-02
*RC reservation_station/genblk3_1__lsu_entry/U27:B2 2.106e-02