*SPEF "IEEE 1481-1999"
*DESIGN "core"
*DATE "Mon Jun  5 18:07:18 2023"
*VENDOR "SYNOPSYS INC"
*PROGRAM "Synopsys Design Compiler cmos"
*VERSION "T-2022.03-SP3"
*DESIGN_FLOW "SYNTHESIS"
*DIVIDER /
*DELIMITER :
*BUS_DELIMITER []
*T_UNIT 1.0 NS
*C_UNIT 0.0010 PF
*R_UNIT 1000.0 KOHM
*L_UNIT 1.0 HENRY

*PORTS

clk_i I *L 0.000e+00 *S 0.000e+00 0.000e+00 
reset_i I *L 0.000e+00 *S 0.000e+00 0.000e+00 
imem_addr_o\[7\] O *L 2.469e+01 *S 1.923e-01 7.891e-02 
imem_addr_o\[6\] O *L 2.469e+01 *S 2.374e-01 9.266e-02 
imem_addr_o\[5\] O *L 2.469e+01 *S 1.923e-01 7.891e-02 
imem_addr_o\[4\] O *L 2.469e+01 *S 2.374e-01 9.266e-02 
imem_addr_o\[3\] O *L 2.469e+01 *S 1.923e-01 7.891e-02 
imem_addr_o\[2\] O *L 2.469e+01 *S 2.433e-01 9.434e-02 
imem_addr_o\[1\] O *L 2.469e+01 *S 2.250e-01 8.891e-02 
imem_addr_o\[0\] O *L 2.469e+01 *S 2.605e-01 9.917e-02 
imem_inst_i\[31\] I *L 0.000e+00 *S 1.042e-02 1.042e-02 
imem_inst_i\[30\] I *L 0.000e+00 *S 1.042e-02 1.042e-02 
imem_inst_i\[29\] I *L 0.000e+00 *S 1.042e-02 1.042e-02 
imem_inst_i\[28\] I *L 0.000e+00 *S 1.042e-02 1.042e-02 
imem_inst_i\[27\] I *L 0.000e+00 *S 1.042e-02 1.042e-02 
imem_inst_i\[26\] I *L 0.000e+00 *S 1.042e-02 1.042e-02 
imem_inst_i\[25\] I *L 0.000e+00 *S 1.042e-02 1.042e-02 
imem_inst_i\[24\] I *L 0.000e+00 *S 1.042e-02 1.042e-02 
imem_inst_i\[23\] I *L 0.000e+00 *S 1.042e-02 1.042e-02 
imem_inst_i\[22\] I *L 0.000e+00 *S 1.042e-02 1.042e-02 
imem_inst_i\[21\] I *L 0.000e+00 *S 1.042e-02 1.042e-02 
imem_inst_i\[20\] I *L 0.000e+00 *S 1.042e-02 1.042e-02 
imem_inst_i\[19\] I *L 0.000e+00 *S 1.042e-02 1.042e-02 
imem_inst_i\[18\] I *L 0.000e+00 *S 1.042e-02 1.042e-02 
imem_inst_i\[17\] I *L 0.000e+00 *S 1.042e-02 1.042e-02 
imem_inst_i\[16\] I *L 0.000e+00 *S 1.042e-02 1.042e-02 
imem_inst_i\[15\] I *L 0.000e+00 *S 1.042e-02 1.042e-02 
imem_inst_i\[14\] I *L 0.000e+00 *S 1.042e-02 1.042e-02 
imem_inst_i\[13\] I *L 0.000e+00 *S 1.042e-02 1.042e-02 
imem_inst_i\[12\] I *L 0.000e+00 *S 1.042e-02 1.042e-02 
imem_inst_i\[11\] I *L 0.000e+00 *S 1.042e-02 1.042e-02 
imem_inst_i\[10\] I *L 0.000e+00 *S 1.042e-02 1.042e-02 
imem_inst_i\[9\] I *L 0.000e+00 *S 1.042e-02 1.042e-02 
imem_inst_i\[8\] I *L 0.000e+00 *S 1.042e-02 1.042e-02 
imem_inst_i\[7\] I *L 0.000e+00 *S 1.042e-02 1.042e-02 
imem_inst_i\[6\] I *L 0.000e+00 *S 1.042e-02 1.042e-02 
imem_inst_i\[5\] I *L 0.000e+00 *S 1.042e-02 1.042e-02 
imem_inst_i\[4\] I *L 0.000e+00 *S 1.042e-02 1.042e-02 
imem_inst_i\[3\] I *L 0.000e+00 *S 1.042e-02 1.042e-02 
imem_inst_i\[2\] I *L 0.000e+00 *S 1.042e-02 1.042e-02 
imem_inst_i\[1\] I *L 0.000e+00 *S 1.042e-02 1.042e-02 
imem_inst_i\[0\] I *L 0.000e+00 *S 1.042e-02 1.042e-02 
dmem_csb_write_o O *L 2.469e+01 *S 2.432e-01 1.577e-01 
dmem_wmask_o\[3\] O *L 2.469e+01 *S 2.209e-01 1.245e-01 
dmem_wmask_o\[2\] O *L 2.469e+01 *S 2.209e-01 1.245e-01 
dmem_wmask_o\[1\] O *L 2.469e+01 *S 2.209e-01 1.245e-01 
dmem_wmask_o\[0\] O *L 2.469e+01 *S 2.209e-01 1.245e-01 
dmem_waddr_o\[7\] O *L 2.469e+01 *S 2.320e-01 1.039e-01 
dmem_waddr_o\[6\] O *L 2.469e+01 *S 2.320e-01 1.039e-01 
dmem_waddr_o\[5\] O *L 2.469e+01 *S 2.167e-01 1.414e-01 
dmem_waddr_o\[4\] O *L 2.469e+01 *S 2.167e-01 1.414e-01 
dmem_waddr_o\[3\] O *L 2.469e+01 *S 2.167e-01 1.414e-01 
dmem_waddr_o\[2\] O *L 2.469e+01 *S 2.167e-01 1.414e-01 
dmem_waddr_o\[1\] O *L 2.469e+01 *S 2.167e-01 1.414e-01 
dmem_waddr_o\[0\] O *L 2.469e+01 *S 2.167e-01 1.414e-01 
dmem_din_o\[31\] O *L 2.469e+01 *S 2.320e-01 1.039e-01 
dmem_din_o\[30\] O *L 2.469e+01 *S 2.320e-01 1.039e-01 
dmem_din_o\[29\] O *L 2.469e+01 *S 2.320e-01 1.039e-01 
dmem_din_o\[28\] O *L 2.469e+01 *S 2.320e-01 1.039e-01 
dmem_din_o\[27\] O *L 2.469e+01 *S 2.320e-01 1.039e-01 
dmem_din_o\[26\] O *L 2.469e+01 *S 2.320e-01 1.039e-01 
dmem_din_o\[25\] O *L 2.469e+01 *S 2.320e-01 1.039e-01 
dmem_din_o\[24\] O *L 2.469e+01 *S 2.320e-01 1.039e-01 
dmem_din_o\[23\] O *L 2.469e+01 *S 2.320e-01 1.039e-01 
dmem_din_o\[22\] O *L 2.469e+01 *S 2.320e-01 1.039e-01 
dmem_din_o\[21\] O *L 2.469e+01 *S 2.320e-01 1.039e-01 
dmem_din_o\[20\] O *L 2.469e+01 *S 2.320e-01 1.039e-01 
dmem_din_o\[19\] O *L 2.469e+01 *S 2.320e-01 1.039e-01 
dmem_din_o\[18\] O *L 2.469e+01 *S 2.320e-01 1.039e-01 
dmem_din_o\[17\] O *L 2.469e+01 *S 2.320e-01 1.039e-01 
dmem_din_o\[16\] O *L 2.469e+01 *S 2.320e-01 1.039e-01 
dmem_din_o\[15\] O *L 2.469e+01 *S 2.320e-01 1.039e-01 
dmem_din_o\[14\] O *L 2.469e+01 *S 2.320e-01 1.039e-01 
dmem_din_o\[13\] O *L 2.469e+01 *S 2.320e-01 1.039e-01 
dmem_din_o\[12\] O *L 2.469e+01 *S 2.320e-01 1.039e-01 
dmem_din_o\[11\] O *L 2.469e+01 *S 2.320e-01 1.039e-01 
dmem_din_o\[10\] O *L 2.469e+01 *S 2.320e-01 1.039e-01 
dmem_din_o\[9\] O *L 2.469e+01 *S 2.320e-01 1.039e-01 
dmem_din_o\[8\] O *L 2.469e+01 *S 2.320e-01 1.039e-01 
dmem_din_o\[7\] O *L 2.469e+01 *S 2.320e-01 1.039e-01 
dmem_din_o\[6\] O *L 2.469e+01 *S 2.320e-01 1.039e-01 
dmem_din_o\[5\] O *L 2.469e+01 *S 2.320e-01 1.039e-01 
dmem_din_o\[4\] O *L 2.469e+01 *S 2.320e-01 1.039e-01 
dmem_din_o\[3\] O *L 2.469e+01 *S 2.320e-01 1.039e-01 
dmem_din_o\[2\] O *L 2.469e+01 *S 2.320e-01 1.039e-01 
dmem_din_o\[1\] O *L 2.469e+01 *S 2.320e-01 1.039e-01 
dmem_din_o\[0\] O *L 2.469e+01 *S 2.320e-01 1.039e-01 
dmem_csb_read_o O *L 2.469e+01 *S 2.609e-01 1.676e-01 
dmem_raddr_o\[7\] O *L 2.469e+01 *S 2.320e-01 1.039e-01 
dmem_raddr_o\[6\] O *L 2.469e+01 *S 2.320e-01 1.039e-01 
dmem_raddr_o\[5\] O *L 2.469e+01 *S 2.167e-01 1.414e-01 
dmem_raddr_o\[4\] O *L 2.469e+01 *S 2.167e-01 1.414e-01 
dmem_raddr_o\[3\] O *L 2.469e+01 *S 2.167e-01 1.414e-01 
dmem_raddr_o\[2\] O *L 2.469e+01 *S 2.167e-01 1.414e-01 
dmem_raddr_o\[1\] O *L 2.469e+01 *S 2.167e-01 1.414e-01 
dmem_raddr_o\[0\] O *L 2.469e+01 *S 2.167e-01 1.414e-01 

*R_NET clk_i 3.316e+01
*DRIVER lsu0/lsu_fifo:clk_i
*CELL fifo
*C2_R1_C1 1.658e+01 2.394e-01 1.658e+01 
*LOADS
*RC reservation_station/genblk3_3__lsu_entry/U3:A 2.860e-02
*RC reservation_station/genblk3_2__lsu_entry/U3:A 2.860e-02
*RC reservation_station/genblk3_1__lsu_entry/U3:A 2.860e-02
*RC reservation_station/genblk3_0__lsu_entry/U3:A 2.860e-02
*RC reservation_station/genblk2_3__mul_entry/U3:A 2.860e-02
*RC reservation_station/genblk2_2__mul_entry/U3:A 2.860e-02
*RC reservation_station/genblk2_1__mul_entry/U3:A 2.860e-02
*RC reservation_station/genblk2_0__mul_entry/U3:A 2.860e-02
*RC reservation_station/genblk1_3__alu_entry/U3:A 2.860e-02
*RC reservation_station/genblk1_2__alu_entry/U3:A 2.860e-02
*RC reservation_station/genblk1_1__alu_entry/U4:A 1.743e-02
*RC reservation_station/genblk1_1__alu_entry/U3:A 1.743e-02
*RC reservation_station/genblk1_0__alu_entry/U3:A 2.860e-02
*RC lsu0/mem_load_success_reg:CK 1.935e-02
*RC U83:A 1.743e-02
*RC reservation_station/pi_alu:clk_i 7.886e-03
*RC reservation_station/pi_lsu:clk_i 7.886e-03
*RC reservation_station/pi_mul:clk_i 7.886e-03
*DRIVER clk_i
*CELL NULL
*C2_R1_C1 1.658e+01 2.394e-01 1.658e+01 
*LOADS
*RC reservation_station/genblk3_3__lsu_entry/U3:A 2.860e-02
*RC reservation_station/genblk3_2__lsu_entry/U3:A 2.860e-02
*RC reservation_station/genblk3_1__lsu_entry/U3:A 2.860e-02
*RC reservation_station/genblk3_0__lsu_entry/U3:A 2.860e-02
*RC reservation_station/genblk2_3__mul_entry/U3:A 2.860e-02
*RC reservation_station/genblk2_2__mul_entry/U3:A 2.860e-02
*RC reservation_station/genblk2_1__mul_entry/U3:A 2.860e-02
*RC reservation_station/genblk2_0__mul_entry/U3:A 2.860e-02
*RC reservation_station/genblk1_3__alu_entry/U3:A 2.860e-02
*RC reservation_station/genblk1_2__alu_entry/U3:A 2.860e-02
*RC reservation_station/genblk1_1__alu_entry/U4:A 1.743e-02
*RC reservation_station/genblk1_1__alu_entry/U3:A 1.743e-02
*RC reservation_station/genblk1_0__alu_entry/U3:A 2.860e-02
*RC lsu0/mem_load_success_reg:CK 1.935e-02
*RC lsu0/lsu_fifo:clk_i 7.886e-03
*RC U83:A 1.743e-02
*RC reservation_station/pi_alu:clk_i 7.886e-03
*RC reservation_station/pi_lsu:clk_i 7.886e-03
*RC reservation_station/pi_mul:clk_i 7.886e-03
*DRIVER reservation_station/pi_alu:clk_i
*CELL priority_issue
*C2_R1_C1 1.658e+01 2.394e-01 1.658e+01 
*LOADS
*RC reservation_station/genblk3_3__lsu_entry/U3:A 2.860e-02
*RC reservation_station/genblk3_2__lsu_entry/U3:A 2.860e-02
*RC reservation_station/genblk3_1__lsu_entry/U3:A 2.860e-02
*RC reservation_station/genblk3_0__lsu_entry/U3:A 2.860e-02
*RC reservation_station/genblk2_3__mul_entry/U3:A 2.860e-02
*RC reservation_station/genblk2_2__mul_entry/U3:A 2.860e-02
*RC reservation_station/genblk2_1__mul_entry/U3:A 2.860e-02
*RC reservation_station/genblk2_0__mul_entry/U3:A 2.860e-02
*RC reservation_station/genblk1_3__alu_entry/U3:A 2.860e-02
*RC reservation_station/genblk1_2__alu_entry/U3:A 2.860e-02
*RC reservation_station/genblk1_1__alu_entry/U4:A 1.743e-02
*RC reservation_station/genblk1_1__alu_entry/U3:A 1.743e-02
*RC reservation_station/genblk1_0__alu_entry/U3:A 2.860e-02
*RC lsu0/mem_load_success_reg:CK 1.935e-02
*RC lsu0/lsu_fifo:clk_i 7.886e-03
*RC U83:A 1.743e-02
*RC reservation_station/pi_lsu:clk_i 7.886e-03
*RC reservation_station/pi_mul:clk_i 7.886e-03
*DRIVER reservation_station/pi_lsu:clk_i
*CELL priority_issue
*C2_R1_C1 1.658e+01 2.394e-01 1.658e+01 
*LOADS
*RC reservation_station/genblk3_3__lsu_entry/U3:A 2.860e-02
*RC reservation_station/genblk3_2__lsu_entry/U3:A 2.860e-02
*RC reservation_station/genblk3_1__lsu_entry/U3:A 2.860e-02
*RC reservation_station/genblk3_0__lsu_entry/U3:A 2.860e-02
*RC reservation_station/genblk2_3__mul_entry/U3:A 2.860e-02
*RC reservation_station/genblk2_2__mul_entry/U3:A 2.860e-02
*RC reservation_station/genblk2_1__mul_entry/U3:A 2.860e-02
*RC reservation_station/genblk2_0__mul_entry/U3:A 2.860e-02
*RC reservation_station/genblk1_3__alu_entry/U3:A 2.860e-02
*RC reservation_station/genblk1_2__alu_entry/U3:A 2.860e-02
*RC reservation_station/genblk1_1__alu_entry/U4:A 1.743e-02
*RC reservation_station/genblk1_1__alu_entry/U3:A 1.743e-02
*RC reservation_station/genblk1_0__alu_entry/U3:A 2.860e-02
*RC lsu0/mem_load_success_reg:CK 1.935e-02
*RC lsu0/lsu_fifo:clk_i 7.886e-03
*RC U83:A 1.743e-02
*RC reservation_station/pi_alu:clk_i 7.886e-03
*RC reservation_station/pi_mul:clk_i 7.886e-03
*DRIVER reservation_station/pi_mul:clk_i
*CELL priority_issue
*C2_R1_C1 1.658e+01 2.394e-01 1.658e+01 
*LOADS
*RC reservation_station/genblk3_3__lsu_entry/U3:A 2.860e-02
*RC reservation_station/genblk3_2__lsu_entry/U3:A 2.860e-02
*RC reservation_station/genblk3_1__lsu_entry/U3:A 2.860e-02
*RC reservation_station/genblk3_0__lsu_entry/U3:A 2.860e-02
*RC reservation_station/genblk2_3__mul_entry/U3:A 2.860e-02
*RC reservation_station/genblk2_2__mul_entry/U3:A 2.860e-02
*RC reservation_station/genblk2_1__mul_entry/U3:A 2.860e-02
*RC reservation_station/genblk2_0__mul_entry/U3:A 2.860e-02
*RC reservation_station/genblk1_3__alu_entry/U3:A 2.860e-02
*RC reservation_station/genblk1_2__alu_entry/U3:A 2.860e-02
*RC reservation_station/genblk1_1__alu_entry/U4:A 1.743e-02
*RC reservation_station/genblk1_1__alu_entry/U3:A 1.743e-02
*RC reservation_station/genblk1_0__alu_entry/U3:A 2.860e-02
*RC lsu0/mem_load_success_reg:CK 1.935e-02
*RC lsu0/lsu_fifo:clk_i 7.886e-03
*RC U83:A 1.743e-02
*RC reservation_station/pi_alu:clk_i 7.886e-03
*RC reservation_station/pi_lsu:clk_i 7.886e-03
*END

*R_NET reset_i 5.919e+00
*DRIVER lsu0/lsu_fifo:reset_i
*CELL fifo
*C2_R1_C1 2.960e+00 5.299e-02 2.960e+00 
*LOADS
*RC U81:A 1.839e-02
*RC reservation_station/U1:A 1.839e-02
*RC reservation_station/pi_alu:reset_i 3.874e-03
*RC reservation_station/pi_lsu:reset_i 3.874e-03
*RC reservation_station/pi_mul:reset_i 3.874e-03
*DRIVER reset_i
*CELL NULL
*C2_R1_C1 2.960e+00 5.299e-02 2.960e+00 
*LOADS
*RC lsu0/lsu_fifo:reset_i 3.874e-03
*RC U81:A 1.839e-02
*RC reservation_station/U1:A 1.839e-02
*RC reservation_station/pi_alu:reset_i 3.874e-03
*RC reservation_station/pi_lsu:reset_i 3.874e-03
*RC reservation_station/pi_mul:reset_i 3.874e-03
*DRIVER reservation_station/pi_alu:reset_i
*CELL priority_issue
*C2_R1_C1 2.960e+00 5.299e-02 2.960e+00 
*LOADS
*RC lsu0/lsu_fifo:reset_i 3.874e-03
*RC U81:A 1.839e-02
*RC reservation_station/U1:A 1.839e-02
*RC reservation_station/pi_lsu:reset_i 3.874e-03
*RC reservation_station/pi_mul:reset_i 3.874e-03
*DRIVER reservation_station/pi_lsu:reset_i
*CELL priority_issue
*C2_R1_C1 2.960e+00 5.299e-02 2.960e+00 
*LOADS
*RC lsu0/lsu_fifo:reset_i 3.874e-03
*RC U81:A 1.839e-02
*RC reservation_station/U1:A 1.839e-02
*RC reservation_station/pi_alu:reset_i 3.874e-03
*RC reservation_station/pi_mul:reset_i 3.874e-03
*DRIVER reservation_station/pi_mul:reset_i
*CELL priority_issue
*C2_R1_C1 2.960e+00 5.299e-02 2.960e+00 
*LOADS
*RC lsu0/lsu_fifo:reset_i 3.874e-03
*RC U81:A 1.839e-02
*RC reservation_station/U1:A 1.839e-02
*RC reservation_station/pi_alu:reset_i 3.874e-03
*RC reservation_station/pi_lsu:reset_i 3.874e-03
*END

*R_NET imem_addr_o\[7\] 2.500e+01
*DRIVER fetch/pc_reg_9_:Q
*CELL DFF_X1
*C2_R1_C1 1.250e+01 6.236e-03 1.250e+01 
*LOADS
*RC imem_addr_o\[7\] 1.559e-01
*END

*R_NET imem_addr_o\[6\] 3.045e+01
*DRIVER fetch/pc_reg_8_:Q
*CELL DFF_X1
*C2_R1_C1 1.522e+01 3.293e-02 1.522e+01 
*LOADS
*RC fetch/U135:A3 1.071e-02
*RC fetch/U98:A2 1.665e-02
*RC fetch/U42:A2 1.665e-02
*RC imem_addr_o\[6\] 2.067e-01
*END

*R_NET imem_addr_o\[5\] 2.500e+01
*DRIVER fetch/pc_reg_7_:Q
*CELL DFF_X1
*C2_R1_C1 1.250e+01 6.236e-03 1.250e+01 
*LOADS
*RC imem_addr_o\[5\] 1.559e-01
*END

*R_NET imem_addr_o\[4\] 3.045e+01
*DRIVER fetch/pc_reg_6_:Q
*CELL DFF_X1
*C2_R1_C1 1.522e+01 3.293e-02 1.522e+01 
*LOADS
*RC fetch/U131:A3 1.071e-02
*RC fetch/U100:A2 1.665e-02
*RC fetch/U40:A2 1.665e-02
*RC imem_addr_o\[4\] 2.067e-01
*END

*R_NET imem_addr_o\[3\] 2.500e+01
*DRIVER fetch/pc_reg_5_:Q
*CELL DFF_X1
*C2_R1_C1 1.250e+01 6.236e-03 1.250e+01 
*LOADS
*RC imem_addr_o\[3\] 1.559e-01
*END

*R_NET imem_addr_o\[2\] 3.116e+01
*DRIVER fetch/pc_reg_4_:Q
*CELL DFF_X1
*C2_R1_C1 1.558e+01 3.293e-02 1.558e+01 
*LOADS
*RC fetch/U38:A3 1.652e-02
*RC fetch/U102:A2 1.665e-02
*RC fetch/U128:A1 1.668e-02
*RC imem_addr_o\[2\] 2.067e-01
*END

*R_NET imem_addr_o\[1\] 2.896e+01
*DRIVER fetch/pc_reg_3_:Q
*CELL DFF_X1
*C2_R1_C1 1.448e+01 2.308e-02 1.448e+01 
*LOADS
*RC fetch/U38:A1 1.503e-02
*RC fetch/U125:B1 1.486e-02
*RC imem_addr_o\[1\] 1.929e-01
*END

*R_NET imem_addr_o\[0\] 3.321e+01
*DRIVER fetch/pc_reg_2_:Q
*CELL DFF_X1
*C2_R1_C1 1.660e+01 4.254e-02 1.660e+01 
*LOADS
*RC fetch/U38:A2 1.720e-02
*RC fetch/U124:A1 1.757e-02
*RC fetch/U125:B2 1.711e-02
*RC fetch/U126:A1 1.694e-02
*RC imem_addr_o\[0\] 2.137e-01
*END

*R_NET imem_inst_i\[31\] 1.204e+00
*DRIVER imem_inst_i\[31\]
*CELL NULL
*C2_R1_C1 6.022e-01 6.236e-03 6.022e-01 
*LOADS
*RC fetch/U17:A1 7.511e-03
*END

*R_NET imem_inst_i\[30\] 1.204e+00
*DRIVER imem_inst_i\[30\]
*CELL NULL
*C2_R1_C1 6.022e-01 6.236e-03 6.022e-01 
*LOADS
*RC fetch/U119:A1 7.511e-03
*END

*R_NET imem_inst_i\[29\] 1.204e+00
*DRIVER imem_inst_i\[29\]
*CELL NULL
*C2_R1_C1 6.022e-01 6.236e-03 6.022e-01 
*LOADS
*RC fetch/U31:A1 7.511e-03
*END

*R_NET imem_inst_i\[28\] 1.204e+00
*DRIVER imem_inst_i\[28\]
*CELL NULL
*C2_R1_C1 6.022e-01 6.236e-03 6.022e-01 
*LOADS
*RC fetch/U18:A1 7.511e-03
*END

*R_NET imem_inst_i\[27\] 1.204e+00
*DRIVER imem_inst_i\[27\]
*CELL NULL
*C2_R1_C1 6.022e-01 6.236e-03 6.022e-01 
*LOADS
*RC fetch/U118:A1 7.511e-03
*END

*R_NET imem_inst_i\[26\] 1.204e+00
*DRIVER imem_inst_i\[26\]
*CELL NULL
*C2_R1_C1 6.022e-01 6.236e-03 6.022e-01 
*LOADS
*RC fetch/U19:A1 7.511e-03
*END

*R_NET imem_inst_i\[25\] 1.204e+00
*DRIVER imem_inst_i\[25\]
*CELL NULL
*C2_R1_C1 6.022e-01 6.236e-03 6.022e-01 
*LOADS
*RC fetch/U117:A1 7.511e-03
*END

*R_NET imem_inst_i\[24\] 1.204e+00
*DRIVER imem_inst_i\[24\]
*CELL NULL
*C2_R1_C1 6.022e-01 6.236e-03 6.022e-01 
*LOADS
*RC fetch/U20:A1 7.511e-03
*END

*R_NET imem_inst_i\[23\] 1.204e+00
*DRIVER imem_inst_i\[23\]
*CELL NULL
*C2_R1_C1 6.022e-01 6.236e-03 6.022e-01 
*LOADS
*RC fetch/U116:A1 7.511e-03
*END

*R_NET imem_inst_i\[22\] 1.204e+00
*DRIVER imem_inst_i\[22\]
*CELL NULL
*C2_R1_C1 6.022e-01 6.236e-03 6.022e-01 
*LOADS
*RC fetch/U21:A1 7.511e-03
*END

*R_NET imem_inst_i\[21\] 1.204e+00
*DRIVER imem_inst_i\[21\]
*CELL NULL
*C2_R1_C1 6.022e-01 6.236e-03 6.022e-01 
*LOADS
*RC fetch/U115:A1 7.511e-03
*END

*R_NET imem_inst_i\[20\] 1.204e+00
*DRIVER imem_inst_i\[20\]
*CELL NULL
*C2_R1_C1 6.022e-01 6.236e-03 6.022e-01 
*LOADS
*RC fetch/U114:A1 7.511e-03
*END

*R_NET imem_inst_i\[19\] 1.204e+00
*DRIVER imem_inst_i\[19\]
*CELL NULL
*C2_R1_C1 6.022e-01 6.236e-03 6.022e-01 
*LOADS
*RC fetch/U22:A1 7.511e-03
*END

*R_NET imem_inst_i\[18\] 1.204e+00
*DRIVER imem_inst_i\[18\]
*CELL NULL
*C2_R1_C1 6.022e-01 6.236e-03 6.022e-01 
*LOADS
*RC fetch/U113:A1 7.511e-03
*END

*R_NET imem_inst_i\[17\] 1.204e+00
*DRIVER imem_inst_i\[17\]
*CELL NULL
*C2_R1_C1 6.022e-01 6.236e-03 6.022e-01 
*LOADS
*RC fetch/U23:A1 7.511e-03
*END

*R_NET imem_inst_i\[16\] 1.204e+00
*DRIVER imem_inst_i\[16\]
*CELL NULL
*C2_R1_C1 6.022e-01 6.236e-03 6.022e-01 
*LOADS
*RC fetch/U112:A1 7.511e-03
*END

*R_NET imem_inst_i\[15\] 1.204e+00
*DRIVER imem_inst_i\[15\]
*CELL NULL
*C2_R1_C1 6.022e-01 6.236e-03 6.022e-01 
*LOADS
*RC fetch/U24:A1 7.511e-03
*END

*R_NET imem_inst_i\[14\] 1.204e+00
*DRIVER imem_inst_i\[14\]
*CELL NULL
*C2_R1_C1 6.022e-01 6.236e-03 6.022e-01 
*LOADS
*RC fetch/U111:A1 7.511e-03
*END

*R_NET imem_inst_i\[13\] 1.204e+00
*DRIVER imem_inst_i\[13\]
*CELL NULL
*C2_R1_C1 6.022e-01 6.236e-03 6.022e-01 
*LOADS
*RC fetch/U25:A1 7.511e-03
*END

*R_NET imem_inst_i\[12\] 1.204e+00
*DRIVER imem_inst_i\[12\]
*CELL NULL
*C2_R1_C1 6.022e-01 6.236e-03 6.022e-01 
*LOADS
*RC fetch/U110:A1 7.511e-03
*END

*R_NET imem_inst_i\[11\] 1.204e+00
*DRIVER imem_inst_i\[11\]
*CELL NULL
*C2_R1_C1 6.022e-01 6.236e-03 6.022e-01 
*LOADS
*RC fetch/U109:A1 7.511e-03
*END

*R_NET imem_inst_i\[10\] 1.204e+00
*DRIVER imem_inst_i\[10\]
*CELL NULL
*C2_R1_C1 6.022e-01 6.236e-03 6.022e-01 
*LOADS
*RC fetch/U26:A1 7.511e-03
*END

*R_NET imem_inst_i\[9\] 1.204e+00
*DRIVER imem_inst_i\[9\]
*CELL NULL
*C2_R1_C1 6.022e-01 6.236e-03 6.022e-01 
*LOADS
*RC fetch/U108:A1 7.511e-03
*END

*R_NET imem_inst_i\[8\] 1.204e+00
*DRIVER imem_inst_i\[8\]
*CELL NULL
*C2_R1_C1 6.022e-01 6.236e-03 6.022e-01 
*LOADS
*RC fetch/U27:A1 7.511e-03
*END

*R_NET imem_inst_i\[7\] 1.204e+00
*DRIVER imem_inst_i\[7\]
*CELL NULL
*C2_R1_C1 6.022e-01 6.236e-03 6.022e-01 
*LOADS
*RC fetch/U107:A1 7.511e-03
*END

*R_NET imem_inst_i\[6\] 1.204e+00
*DRIVER imem_inst_i\[6\]
*CELL NULL
*C2_R1_C1 6.022e-01 6.236e-03 6.022e-01 
*LOADS
*RC fetch/U28:A1 7.511e-03
*END

*R_NET imem_inst_i\[5\] 1.204e+00
*DRIVER imem_inst_i\[5\]
*CELL NULL
*C2_R1_C1 6.022e-01 6.236e-03 6.022e-01 
*LOADS
*RC fetch/U29:A1 7.511e-03
*END

*R_NET imem_inst_i\[4\] 1.204e+00
*DRIVER imem_inst_i\[4\]
*CELL NULL
*C2_R1_C1 6.022e-01 6.236e-03 6.022e-01 
*LOADS
*RC fetch/U30:A1 7.511e-03
*END

*R_NET imem_inst_i\[3\] 1.204e+00
*DRIVER imem_inst_i\[3\]
*CELL NULL
*C2_R1_C1 6.022e-01 6.236e-03 6.022e-01 
*LOADS
*RC fetch/U106:A1 7.511e-03
*END

*R_NET imem_inst_i\[2\] 1.204e+00
*DRIVER imem_inst_i\[2\]
*CELL NULL
*C2_R1_C1 6.022e-01 6.236e-03 6.022e-01 
*LOADS
*RC fetch/U105:A1 7.511e-03
*END

*R_NET imem_inst_i\[1\] 1.204e+00
*DRIVER imem_inst_i\[1\]
*CELL NULL
*C2_R1_C1 6.022e-01 6.236e-03 6.022e-01 
*LOADS
*RC fetch/U104:A1 7.511e-03
*END

*R_NET imem_inst_i\[0\] 1.204e+00
*DRIVER imem_inst_i\[0\]
*CELL NULL
*C2_R1_C1 6.022e-01 6.236e-03 6.022e-01 
*LOADS
*RC fetch/U103:A1 7.511e-03
*END

*R_NET dmem_csb_write_o 2.698e+01
*DRIVER lsu0/U49:ZN
*CELL NAND2_X1
*C2_R1_C1 1.349e+01 1.407e-02 1.349e+01 
*LOADS
*RC lsu0/U52:B 1.364e-02
*RC dmem_csb_write_o 1.762e-01
*END

*R_NET dmem_wmask_o\[3\] 2.500e+01
*DRIVER lsu0/wmask_reg_3_:Q
*CELL DLH_X1
*C2_R1_C1 1.250e+01 6.236e-03 1.250e+01 
*LOADS
*RC dmem_wmask_o\[3\] 1.559e-01
*END

*R_NET dmem_wmask_o\[2\] 2.500e+01
*DRIVER lsu0/wmask_reg_2_:Q
*CELL DLH_X1
*C2_R1_C1 1.250e+01 6.236e-03 1.250e+01 
*LOADS
*RC dmem_wmask_o\[2\] 1.559e-01
*END

*R_NET dmem_wmask_o\[1\] 2.500e+01
*DRIVER lsu0/wmask_reg_1_:Q
*CELL DLH_X1
*C2_R1_C1 1.250e+01 6.236e-03 1.250e+01 
*LOADS
*RC dmem_wmask_o\[1\] 1.559e-01
*END

*R_NET dmem_wmask_o\[0\] 2.500e+01
*DRIVER lsu0/wmask_reg_0_:Q
*CELL DLH_X1
*C2_R1_C1 1.250e+01 6.236e-03 1.250e+01 
*LOADS
*RC dmem_wmask_o\[0\] 1.559e-01
*END

*R_NET dmem_waddr_o\[5\] 2.500e+01
*DRIVER lsu0/U148:Z
*CELL CLKBUF_X1
*C2_R1_C1 1.250e+01 6.236e-03 1.250e+01 
*LOADS
*RC dmem_waddr_o\[5\] 1.559e-01
*END

*R_NET dmem_waddr_o\[4\] 2.500e+01
*DRIVER lsu0/U146:Z
*CELL CLKBUF_X1
*C2_R1_C1 1.250e+01 6.236e-03 1.250e+01 
*LOADS
*RC dmem_waddr_o\[4\] 1.559e-01
*END

*R_NET dmem_waddr_o\[3\] 2.500e+01
*DRIVER lsu0/U144:Z
*CELL CLKBUF_X1
*C2_R1_C1 1.250e+01 6.236e-03 1.250e+01 
*LOADS
*RC dmem_waddr_o\[3\] 1.559e-01
*END

*R_NET dmem_waddr_o\[2\] 2.500e+01
*DRIVER lsu0/U19:Z
*CELL CLKBUF_X1
*C2_R1_C1 1.250e+01 6.236e-03 1.250e+01 
*LOADS
*RC dmem_waddr_o\[2\] 1.559e-01
*END

*R_NET dmem_waddr_o\[1\] 2.500e+01
*DRIVER lsu0/U21:Z
*CELL CLKBUF_X1
*C2_R1_C1 1.250e+01 6.236e-03 1.250e+01 
*LOADS
*RC dmem_waddr_o\[1\] 1.559e-01
*END

*R_NET dmem_waddr_o\[0\] 2.500e+01
*DRIVER lsu0/U20:Z
*CELL CLKBUF_X1
*C2_R1_C1 1.250e+01 6.236e-03 1.250e+01 
*LOADS
*RC dmem_waddr_o\[0\] 1.559e-01
*END

*R_NET dmem_csb_read_o 2.907e+01
*DRIVER lsu0/U35:ZN
*CELL NAND2_X1
*C2_R1_C1 1.454e+01 2.308e-02 1.454e+01 
*LOADS
*RC lsu0/U11:A 1.559e-02
*RC lsu0/U120:B 1.517e-02
*RC dmem_csb_read_o 1.929e-01
*END

*R_NET dmem_raddr_o\[5\] 2.500e+01
*DRIVER lsu0/U147:Z
*CELL CLKBUF_X1
*C2_R1_C1 1.250e+01 6.236e-03 1.250e+01 
*LOADS
*RC dmem_raddr_o\[5\] 1.559e-01
*END

*R_NET dmem_raddr_o\[4\] 2.500e+01
*DRIVER lsu0/U145:Z
*CELL CLKBUF_X1
*C2_R1_C1 1.250e+01 6.236e-03 1.250e+01 
*LOADS
*RC dmem_raddr_o\[4\] 1.559e-01
*END

*R_NET dmem_raddr_o\[3\] 2.500e+01
*DRIVER lsu0/U143:Z
*CELL CLKBUF_X1
*C2_R1_C1 1.250e+01 6.236e-03 1.250e+01 
*LOADS
*RC dmem_raddr_o\[3\] 1.559e-01
*END

*R_NET dmem_raddr_o\[2\] 2.500e+01
*DRIVER lsu0/U142:Z
*CELL CLKBUF_X1
*C2_R1_C1 1.250e+01 6.236e-03 1.250e+01 
*LOADS
*RC dmem_raddr_o\[2\] 1.559e-01
*END

*R_NET dmem_raddr_o\[1\] 2.500e+01
*DRIVER lsu0/U141:Z
*CELL CLKBUF_X1
*C2_R1_C1 1.250e+01 6.236e-03 1.250e+01 
*LOADS
*RC dmem_raddr_o\[1\] 1.559e-01
*END

*R_NET dmem_raddr_o\[0\] 2.500e+01
*DRIVER lsu0/U18:Z
*CELL CLKBUF_X1
*C2_R1_C1 1.250e+01 6.236e-03 1.250e+01 
*LOADS
*RC dmem_raddr_o\[0\] 1.559e-01
*END

*R_NET alu_request 9.389e+00
*DRIVER decode/dec0/U17:ZN
*CELL AOI221_X1
*C2_R1_C1 4.694e+00 6.648e-02 4.694e+00 
*LOADS
*RC reservation_station/ps_alu/U3:A2 1.340e-02
*RC reservation_station/ps_alu/U6:A1 1.938e-02
*RC reservation_station/U739:A1 1.298e-02
*RC reservation_station/U740:A1 1.298e-02
*RC reservation_station/U741:A1 1.298e-02
*RC reservation_station/U742:A1 1.298e-02
*RC reservation_station/pi_alu:allocate_i 4.481e-03
*DRIVER reservation_station/pi_alu:allocate_i
*CELL priority_issue
*C2_R1_C1 4.694e+00 6.648e-02 4.694e+00 
*LOADS
*RC reservation_station/ps_alu/U3:A2 1.340e-02
*RC reservation_station/ps_alu/U6:A1 1.938e-02
*RC reservation_station/U739:A1 1.298e-02
*RC reservation_station/U740:A1 1.298e-02
*RC reservation_station/U741:A1 1.298e-02
*RC reservation_station/U742:A1 1.298e-02
*END

*R_NET lsu_request 3.654e+00
*DRIVER decode/dec0/U13:ZN
*CELL NOR4_X1
*C2_R1_C1 1.827e+00 2.308e-02 1.827e+00 
*LOADS
*RC reservation_station/ps_lsu/U5:A1 1.501e-02
*RC reservation_station/ps_lsu/U7:A2 1.017e-02
*RC reservation_station/pi_lsu:allocate_i 2.940e-03
*DRIVER reservation_station/pi_lsu:allocate_i
*CELL priority_issue
*C2_R1_C1 1.827e+00 2.308e-02 1.827e+00 
*LOADS
*RC reservation_station/ps_lsu/U5:A1 1.501e-02
*RC reservation_station/ps_lsu/U7:A2 1.017e-02
*END

*R_NET mul_request 3.654e+00
*DRIVER decode/dec0/U12:ZN
*CELL AOI211_X1
*C2_R1_C1 1.827e+00 2.308e-02 1.827e+00 
*LOADS
*RC reservation_station/ps_mul/U5:A1 1.501e-02
*RC reservation_station/ps_mul/U7:A2 1.017e-02
*RC reservation_station/pi_mul:allocate_i 2.940e-03
*DRIVER reservation_station/pi_mul:allocate_i
*CELL priority_issue
*C2_R1_C1 1.827e+00 2.308e-02 1.827e+00 
*LOADS
*RC reservation_station/ps_mul/U5:A1 1.501e-02
*RC reservation_station/ps_mul/U7:A2 1.017e-02
*END

*R_NET inst_fetch\[31\] 1.882e+00
*DRIVER fetch/inst_o_reg_31_:Q
*CELL DFF_X1
*C2_R1_C1 9.409e-01 6.236e-03 9.409e-01 
*LOADS
*RC decode/dec0/U4:A3 1.173e-02
*END

*R_NET inst_fetch\[30\] 1.853e+00
*DRIVER fetch/inst_o_reg_30_:Q
*CELL DFF_X1
*C2_R1_C1 9.264e-01 6.236e-03 9.264e-01 
*LOADS
*RC decode/dec0/U4:A4 1.155e-02
*END

*R_NET inst_fetch\[29\] 1.910e+00
*DRIVER fetch/inst_o_reg_29_:Q
*CELL DFF_X1
*C2_R1_C1 9.550e-01 6.236e-03 9.550e-01 
*LOADS
*RC decode/dec0/U4:A2 1.191e-02
*END

*R_NET inst_fetch\[28\] 1.221e+00
*DRIVER fetch/inst_o_reg_28_:Q
*CELL DFF_X1
*C2_R1_C1 6.104e-01 6.236e-03 6.104e-01 
*LOADS
*RC decode/dec0/U7:A1 7.612e-03
*END

*R_NET inst_fetch\[27\] 1.008e+01
*DRIVER fetch/inst_o_reg_27_:Q
*CELL DFF_X1
*C2_R1_C1 5.039e+00 4.254e-02 5.039e+00 
*LOADS
*RC reservation_station/genblk3_3__lsu_entry/U90:B2 1.704e-02
*RC reservation_station/genblk3_2__lsu_entry/U46:B2 1.704e-02
*RC reservation_station/genblk3_1__lsu_entry/U128:B2 1.704e-02
*RC reservation_station/genblk3_0__lsu_entry/U89:B2 1.704e-02
*RC decode/dec0/U4:A1 1.760e-02
*END

*R_NET inst_fetch\[26\] 9.340e+00
*DRIVER fetch/inst_o_reg_26_:Q
*CELL DFF_X1
*C2_R1_C1 4.670e+00 4.254e-02 4.670e+00 
*LOADS
*RC reservation_station/genblk3_3__lsu_entry/U92:B2 1.704e-02
*RC reservation_station/genblk3_2__lsu_entry/U48:B2 1.704e-02
*RC reservation_station/genblk3_1__lsu_entry/U130:B2 1.704e-02
*RC reservation_station/genblk3_0__lsu_entry/U91:B2 1.704e-02
*RC decode/dec0/U7:A2 1.132e-02
*END

*R_NET inst_fetch\[25\] 1.002e+01
*DRIVER fetch/inst_o_reg_25_:Q
*CELL DFF_X1
*C2_R1_C1 5.008e+00 4.254e-02 5.008e+00 
*LOADS
*RC reservation_station/genblk3_3__lsu_entry/U94:B2 1.704e-02
*RC reservation_station/genblk3_2__lsu_entry/U50:B2 1.704e-02
*RC reservation_station/genblk3_1__lsu_entry/U132:B2 1.704e-02
*RC reservation_station/genblk3_0__lsu_entry/U93:B2 1.704e-02
*RC decode/dec0/U6:A2 1.707e-02
*END

*R_NET inst_fetch\[24\] 1.008e+01
*DRIVER fetch/inst_o_reg_24_:Q
*CELL DFF_X1
*C2_R1_C1 5.038e+00 4.254e-02 5.038e+00 
*LOADS
*RC reservation_station/genblk3_3__lsu_entry/U95:B2 1.704e-02
*RC reservation_station/genblk3_2__lsu_entry/U52:B2 1.704e-02
*RC reservation_station/genblk3_1__lsu_entry/U134:B2 1.704e-02
*RC reservation_station/genblk3_0__lsu_entry/U94:B2 1.704e-02
*RC decode/U20:A 1.758e-02
*END

*R_NET inst_fetch\[23\] 1.008e+01
*DRIVER fetch/inst_o_reg_23_:Q
*CELL DFF_X1
*C2_R1_C1 5.038e+00 4.254e-02 5.038e+00 
*LOADS
*RC reservation_station/genblk3_3__lsu_entry/U97:B2 1.704e-02
*RC reservation_station/genblk3_2__lsu_entry/U54:B2 1.704e-02
*RC reservation_station/genblk3_1__lsu_entry/U136:B2 1.704e-02
*RC reservation_station/genblk3_0__lsu_entry/U96:B2 1.704e-02
*RC decode/U18:A 1.758e-02
*END

*R_NET inst_fetch\[22\] 9.190e+00
*DRIVER fetch/inst_o_reg_22_:Q
*CELL DFF_X1
*C2_R1_C1 4.595e+00 4.254e-02 4.595e+00 
*LOADS
*RC reservation_station/genblk3_3__lsu_entry/U99:B2 1.704e-02
*RC reservation_station/genblk3_2__lsu_entry/U56:B2 1.704e-02
*RC reservation_station/genblk3_1__lsu_entry/U138:B2 1.704e-02
*RC reservation_station/genblk3_0__lsu_entry/U98:B2 1.704e-02
*RC decode/U25:A 1.004e-02
*END

*R_NET inst_fetch\[21\] 9.190e+00
*DRIVER fetch/inst_o_reg_21_:Q
*CELL DFF_X1
*C2_R1_C1 4.595e+00 4.254e-02 4.595e+00 
*LOADS
*RC reservation_station/genblk3_3__lsu_entry/U101:B2 1.704e-02
*RC reservation_station/genblk3_2__lsu_entry/U58:B2 1.704e-02
*RC reservation_station/genblk3_1__lsu_entry/U140:B2 1.704e-02
*RC reservation_station/genblk3_0__lsu_entry/U100:B2 1.704e-02
*RC decode/U24:A 1.004e-02
*END

*R_NET inst_fetch\[20\] 9.190e+00
*DRIVER fetch/inst_o_reg_20_:Q
*CELL DFF_X1
*C2_R1_C1 4.595e+00 4.254e-02 4.595e+00 
*LOADS
*RC reservation_station/genblk3_3__lsu_entry/U103:B2 1.704e-02
*RC reservation_station/genblk3_2__lsu_entry/U60:B2 1.704e-02
*RC reservation_station/genblk3_1__lsu_entry/U142:B2 1.704e-02
*RC reservation_station/genblk3_0__lsu_entry/U102:B2 1.704e-02
*RC decode/U2:A 1.004e-02
*END

*R_NET inst_fetch\[19\] 1.953e+00
*DRIVER fetch/inst_o_reg_19_:Q
*CELL DFF_X1
*C2_R1_C1 9.767e-01 6.236e-03 9.767e-01 
*LOADS
*RC decode/U16:A 1.218e-02
*END

*R_NET inst_fetch\[18\] 1.953e+00
*DRIVER fetch/inst_o_reg_18_:Q
*CELL DFF_X1
*C2_R1_C1 9.767e-01 6.236e-03 9.767e-01 
*LOADS
*RC decode/U14:A 1.218e-02
*END

*R_NET inst_fetch\[17\] 1.067e+00
*DRIVER fetch/inst_o_reg_17_:Q
*CELL DFF_X1
*C2_R1_C1 5.337e-01 6.236e-03 5.337e-01 
*LOADS
*RC decode/U23:A 6.657e-03
*END

*R_NET inst_fetch\[16\] 1.067e+00
*DRIVER fetch/inst_o_reg_16_:Q
*CELL DFF_X1
*C2_R1_C1 5.337e-01 6.236e-03 5.337e-01 
*LOADS
*RC decode/U22:A 6.657e-03
*END

*R_NET inst_fetch\[15\] 1.067e+00
*DRIVER fetch/inst_o_reg_15_:Q
*CELL DFF_X1
*C2_R1_C1 5.337e-01 6.236e-03 5.337e-01 
*LOADS
*RC decode/U13:A 6.657e-03
*END

*R_NET inst_fetch\[14\] 9.323e+00
*DRIVER fetch/inst_o_reg_14_:Q
*CELL DFF_X1
*C2_R1_C1 4.662e+00 4.254e-02 4.662e+00 
*LOADS
*RC reservation_station/genblk3_3__lsu_entry/U115:B2 1.704e-02
*RC reservation_station/genblk3_2__lsu_entry/U71:B2 1.704e-02
*RC reservation_station/genblk3_1__lsu_entry/U153:B2 1.704e-02
*RC reservation_station/genblk3_0__lsu_entry/U114:B2 1.704e-02
*RC decode/dec0/U11:A1 1.118e-02
*END

*R_NET inst_fetch\[13\] 1.003e+01
*DRIVER fetch/inst_o_reg_13_:Q
*CELL DFF_X1
*C2_R1_C1 5.017e+00 4.254e-02 5.017e+00 
*LOADS
*RC reservation_station/genblk3_3__lsu_entry/U117:B2 1.704e-02
*RC reservation_station/genblk3_2__lsu_entry/U73:B2 1.704e-02
*RC reservation_station/genblk3_1__lsu_entry/U155:B2 1.704e-02
*RC reservation_station/genblk3_0__lsu_entry/U116:B2 1.704e-02
*RC decode/dec0/U12:C1 1.722e-02
*END

*R_NET inst_fetch\[12\] 1.004e+01
*DRIVER fetch/inst_o_reg_12_:Q
*CELL DFF_X1
*C2_R1_C1 5.020e+00 4.254e-02 5.020e+00 
*LOADS
*RC reservation_station/genblk3_3__lsu_entry/U119:B2 1.704e-02
*RC reservation_station/genblk3_2__lsu_entry/U75:B2 1.704e-02
*RC reservation_station/genblk3_1__lsu_entry/U157:B2 1.704e-02
*RC reservation_station/genblk3_0__lsu_entry/U118:B2 1.704e-02
*RC decode/dec0/U12:C2 1.728e-02
*END

*R_NET inst_fetch\[11\] 1.008e+01
*DRIVER fetch/inst_o_reg_11_:Q