*SPEF "IEEE 1481-1999"
*DESIGN "lsu"
*DATE "Thu Jun  8 16:26:17 2023"
*VENDOR "SYNOPSYS INC"
*PROGRAM "Synopsys Design Compiler cmos"
*VERSION "T-2022.03-SP3"
*DESIGN_FLOW "SYNTHESIS"
*DIVIDER /
*DELIMITER :
*BUS_DELIMITER []
*T_UNIT 1.0 NS
*C_UNIT 0.0010 PF
*R_UNIT 1000.0 KOHM
*L_UNIT 1.0 HENRY

*PORTS

clk_i I *L 0.000e+00 *S 7.967e-01 7.967e-01 
reset_i I *L 0.000e+00 *S 0.000e+00 0.000e+00 
pc_i\[31\] I *L 0.000e+00 *S 0.000e+00 0.000e+00 
pc_i\[30\] I *L 0.000e+00 *S 0.000e+00 0.000e+00 
pc_i\[29\] I *L 0.000e+00 *S 0.000e+00 0.000e+00 
pc_i\[28\] I *L 0.000e+00 *S 0.000e+00 0.000e+00 
pc_i\[27\] I *L 0.000e+00 *S 0.000e+00 0.000e+00 
pc_i\[26\] I *L 0.000e+00 *S 0.000e+00 0.000e+00 
pc_i\[25\] I *L 0.000e+00 *S 0.000e+00 0.000e+00 
pc_i\[24\] I *L 0.000e+00 *S 0.000e+00 0.000e+00 
pc_i\[23\] I *L 0.000e+00 *S 0.000e+00 0.000e+00 
pc_i\[22\] I *L 0.000e+00 *S 0.000e+00 0.000e+00 
pc_i\[21\] I *L 0.000e+00 *S 0.000e+00 0.000e+00 
pc_i\[20\] I *L 0.000e+00 *S 0.000e+00 0.000e+00 
pc_i\[19\] I *L 0.000e+00 *S 0.000e+00 0.000e+00 
pc_i\[18\] I *L 0.000e+00 *S 0.000e+00 0.000e+00 
pc_i\[17\] I *L 0.000e+00 *S 0.000e+00 0.000e+00 
pc_i\[16\] I *L 0.000e+00 *S 0.000e+00 0.000e+00 
pc_i\[15\] I *L 0.000e+00 *S 0.000e+00 0.000e+00 
pc_i\[14\] I *L 0.000e+00 *S 0.000e+00 0.000e+00 
pc_i\[13\] I *L 0.000e+00 *S 0.000e+00 0.000e+00 
pc_i\[12\] I *L 0.000e+00 *S 0.000e+00 0.000e+00 
pc_i\[11\] I *L 0.000e+00 *S 0.000e+00 0.000e+00 
pc_i\[10\] I *L 0.000e+00 *S 0.000e+00 0.000e+00 
pc_i\[9\] I *L 0.000e+00 *S 0.000e+00 0.000e+00 
pc_i\[8\] I *L 0.000e+00 *S 0.000e+00 0.000e+00 
pc_i\[7\] I *L 0.000e+00 *S 0.000e+00 0.000e+00 
pc_i\[6\] I *L 0.000e+00 *S 0.000e+00 0.000e+00 
pc_i\[5\] I *L 0.000e+00 *S 0.000e+00 0.000e+00 
pc_i\[4\] I *L 0.000e+00 *S 0.000e+00 0.000e+00 
pc_i\[3\] I *L 0.000e+00 *S 0.000e+00 0.000e+00 
pc_i\[2\] I *L 0.000e+00 *S 0.000e+00 0.000e+00 
pc_i\[1\] I *L 0.000e+00 *S 0.000e+00 0.000e+00 
pc_i\[0\] I *L 0.000e+00 *S 0.000e+00 0.000e+00 
lsu_request_i I *L 0.000e+00 *S 8.690e-02 8.690e-02 
inst_i\[31\] I *L 0.000e+00 *S 0.000e+00 0.000e+00 
inst_i\[30\] I *L 0.000e+00 *S 0.000e+00 0.000e+00 
inst_i\[29\] I *L 0.000e+00 *S 0.000e+00 0.000e+00 
inst_i\[28\] I *L 0.000e+00 *S 0.000e+00 0.000e+00 
inst_i\[27\] I *L 0.000e+00 *S 2.193e-02 2.193e-02 
inst_i\[26\] I *L 0.000e+00 *S 3.383e-02 3.383e-02 
inst_i\[25\] I *L 0.000e+00 *S 6.402e-02 6.402e-02 
inst_i\[24\] I *L 0.000e+00 *S 3.471e-02 3.471e-02 
inst_i\[23\] I *L 0.000e+00 *S 3.471e-02 3.471e-02 
inst_i\[22\] I *L 0.000e+00 *S 3.471e-02 3.471e-02 
inst_i\[21\] I *L 0.000e+00 *S 3.471e-02 3.471e-02 
inst_i\[20\] I *L 0.000e+00 *S 1.691e-02 1.691e-02 
inst_i\[19\] I *L 0.000e+00 *S 0.000e+00 0.000e+00 
inst_i\[18\] I *L 0.000e+00 *S 0.000e+00 0.000e+00 
inst_i\[17\] I *L 0.000e+00 *S 0.000e+00 0.000e+00 
inst_i\[16\] I *L 0.000e+00 *S 0.000e+00 0.000e+00 
inst_i\[15\] I *L 0.000e+00 *S 0.000e+00 0.000e+00 
inst_i\[14\] I *L 0.000e+00 *S 1.659e-02 1.659e-02 
inst_i\[13\] I *L 0.000e+00 *S 6.983e-02 6.983e-02 
inst_i\[12\] I *L 0.000e+00 *S 3.248e-02 3.248e-02 
inst_i\[11\] I *L 0.000e+00 *S 3.471e-02 3.471e-02 
inst_i\[10\] I *L 0.000e+00 *S 3.471e-02 3.471e-02 
inst_i\[9\] I *L 0.000e+00 *S 3.471e-02 3.471e-02 
inst_i\[8\] I *L 0.000e+00 *S 3.471e-02 3.471e-02 
inst_i\[7\] I *L 0.000e+00 *S 2.756e-02 2.756e-02 
inst_i\[6\] I *L 0.000e+00 *S 1.689e-02 1.689e-02 
inst_i\[5\] I *L 0.000e+00 *S 3.424e-02 3.424e-02 
inst_i\[4\] I *L 0.000e+00 *S 1.723e-02 1.723e-02 
inst_i\[3\] I *L 0.000e+00 *S 1.645e-02 1.645e-02 
inst_i\[2\] I *L 0.000e+00 *S 1.651e-02 1.651e-02 
inst_i\[1\] I *L 0.000e+00 *S 1.628e-02 1.628e-02 
inst_i\[0\] I *L 0.000e+00 *S 1.652e-02 1.652e-02 
rs1_value_i\[31\] I *L 0.000e+00 *S 0.000e+00 0.000e+00 
rs1_value_i\[30\] I *L 0.000e+00 *S 0.000e+00 0.000e+00 
rs1_value_i\[29\] I *L 0.000e+00 *S 0.000e+00 0.000e+00 
rs1_value_i\[28\] I *L 0.000e+00 *S 0.000e+00 0.000e+00 
rs1_value_i\[27\] I *L 0.000e+00 *S 0.000e+00 0.000e+00 
rs1_value_i\[26\] I *L 0.000e+00 *S 0.000e+00 0.000e+00 
rs1_value_i\[25\] I *L 0.000e+00 *S 0.000e+00 0.000e+00 
rs1_value_i\[24\] I *L 0.000e+00 *S 0.000e+00 0.000e+00 
rs1_value_i\[23\] I *L 0.000e+00 *S 0.000e+00 0.000e+00 
rs1_value_i\[22\] I *L 0.000e+00 *S 0.000e+00 0.000e+00 
rs1_value_i\[21\] I *L 0.000e+00 *S 0.000e+00 0.000e+00 
rs1_value_i\[20\] I *L 0.000e+00 *S 0.000e+00 0.000e+00 
rs1_value_i\[19\] I *L 0.000e+00 *S 0.000e+00 0.000e+00 
rs1_value_i\[18\] I *L 0.000e+00 *S 0.000e+00 0.000e+00 
rs1_value_i\[17\] I *L 0.000e+00 *S 0.000e+00 0.000e+00 
rs1_value_i\[16\] I *L 0.000e+00 *S 0.000e+00 0.000e+00 
rs1_value_i\[15\] I *L 0.000e+00 *S 0.000e+00 0.000e+00 
rs1_value_i\[14\] I *L 0.000e+00 *S 0.000e+00 0.000e+00 
rs1_value_i\[13\] I *L 0.000e+00 *S 0.000e+00 0.000e+00 
rs1_value_i\[12\] I *L 0.000e+00 *S 0.000e+00 0.000e+00 
rs1_value_i\[11\] I *L 0.000e+00 *S 0.000e+00 0.000e+00 
rs1_value_i\[10\] I *L 0.000e+00 *S 0.000e+00 0.000e+00 
rs1_value_i\[9\] I *L 0.000e+00 *S 0.000e+00 0.000e+00 
rs1_value_i\[8\] I *L 0.000e+00 *S 0.000e+00 0.000e+00 
rs1_value_i\[7\] I *L 0.000e+00 *S 2.464e-02 2.464e-02 
rs1_value_i\[6\] I *L 0.000e+00 *S 3.378e-02 3.378e-02 
rs1_value_i\[5\] I *L 0.000e+00 *S 6.417e-02 6.417e-02 
rs1_value_i\[4\] I *L 0.000e+00 *S 6.617e-02 6.617e-02 
rs1_value_i\[3\] I *L 0.000e+00 *S 6.617e-02 6.617e-02 
rs1_value_i\[2\] I *L 0.000e+00 *S 6.617e-02 6.617e-02 
rs1_value_i\[1\] I *L 0.000e+00 *S 6.617e-02 6.617e-02 
rs1_value_i\[0\] I *L 0.000e+00 *S 4.649e-02 4.649e-02 
rs2_value_i\[31\] I *L 0.000e+00 *S 9.239e-03 9.239e-03 
rs2_value_i\[30\] I *L 0.000e+00 *S 9.239e-03 9.239e-03 
rs2_value_i\[29\] I *L 0.000e+00 *S 9.239e-03 9.239e-03 
rs2_value_i\[28\] I *L 0.000e+00 *S 9.239e-03 9.239e-03 
rs2_value_i\[27\] I *L 0.000e+00 *S 9.239e-03 9.239e-03 
rs2_value_i\[26\] I *L 0.000e+00 *S 9.239e-03 9.239e-03 
rs2_value_i\[25\] I *L 0.000e+00 *S 9.239e-03 9.239e-03 
rs2_value_i\[24\] I *L 0.000e+00 *S 9.239e-03 9.239e-03 
rs2_value_i\[23\] I *L 0.000e+00 *S 9.239e-03 9.239e-03 
rs2_value_i\[22\] I *L 0.000e+00 *S 9.239e-03 9.239e-03 
rs2_value_i\[21\] I *L 0.000e+00 *S 9.239e-03 9.239e-03 
rs2_value_i\[20\] I *L 0.000e+00 *S 9.239e-03 9.239e-03 
rs2_value_i\[19\] I *L 0.000e+00 *S 9.239e-03 9.239e-03 
rs2_value_i\[18\] I *L 0.000e+00 *S 9.239e-03 9.239e-03 
rs2_value_i\[17\] I *L 0.000e+00 *S 9.239e-03 9.239e-03 
rs2_value_i\[16\] I *L 0.000e+00 *S 9.239e-03 9.239e-03 
rs2_value_i\[15\] I *L 0.000e+00 *S 9.239e-03 9.239e-03 
rs2_value_i\[14\] I *L 0.000e+00 *S 9.239e-03 9.239e-03 
rs2_value_i\[13\] I *L 0.000e+00 *S 9.239e-03 9.239e-03 
rs2_value_i\[12\] I *L 0.000e+00 *S 9.239e-03 9.239e-03 
rs2_value_i\[11\] I *L 0.000e+00 *S 9.239e-03 9.239e-03 
rs2_value_i\[10\] I *L 0.000e+00 *S 9.239e-03 9.239e-03 
rs2_value_i\[9\] I *L 0.000e+00 *S 9.239e-03 9.239e-03 
rs2_value_i\[8\] I *L 0.000e+00 *S 9.239e-03 9.239e-03 
rs2_value_i\[7\] I *L 0.000e+00 *S 9.239e-03 9.239e-03 
rs2_value_i\[6\] I *L 0.000e+00 *S 9.239e-03 9.239e-03 
rs2_value_i\[5\] I *L 0.000e+00 *S 9.239e-03 9.239e-03 
rs2_value_i\[4\] I *L 0.000e+00 *S 9.239e-03 9.239e-03 
rs2_value_i\[3\] I *L 0.000e+00 *S 9.239e-03 9.239e-03 
rs2_value_i\[2\] I *L 0.000e+00 *S 9.239e-03 9.239e-03 
rs2_value_i\[1\] I *L 0.000e+00 *S 9.239e-03 9.239e-03 
rs2_value_i\[0\] I *L 0.000e+00 *S 9.239e-03 9.239e-03 
rob_idx_i\[4\] I *L 0.000e+00 *S 1.228e-02 1.228e-02 
rob_idx_i\[3\] I *L 0.000e+00 *S 1.228e-02 1.228e-02 
rob_idx_i\[2\] I *L 0.000e+00 *S 1.228e-02 1.228e-02 
rob_idx_i\[1\] I *L 0.000e+00 *S 1.228e-02 1.228e-02 
rob_idx_i\[0\] I *L 0.000e+00 *S 1.228e-02 1.228e-02 
busy_o O *L 2.469e+01 *S 2.320e-01 1.039e-01 
writeback_valid_o O *L 2.469e+01 *S 2.597e-01 9.897e-02 
writeback_value_o\[31\] O *L 2.469e+01 *S 2.265e-01 1.483e-01 
writeback_value_o\[30\] O *L 2.469e+01 *S 2.265e-01 1.483e-01 
writeback_value_o\[29\] O *L 2.469e+01 *S 2.265e-01 1.483e-01 
writeback_value_o\[28\] O *L 2.469e+01 *S 2.265e-01 1.483e-01 
writeback_value_o\[27\] O *L 2.469e+01 *S 2.265e-01 1.483e-01 
writeback_value_o\[26\] O *L 2.469e+01 *S 2.265e-01 1.483e-01 
writeback_value_o\[25\] O *L 2.469e+01 *S 2.265e-01 1.483e-01 
writeback_value_o\[24\] O *L 2.469e+01 *S 2.265e-01 1.483e-01 
writeback_value_o\[23\] O *L 2.469e+01 *S 2.265e-01 1.483e-01 
writeback_value_o\[22\] O *L 2.469e+01 *S 2.265e-01 1.483e-01 
writeback_value_o\[21\] O *L 2.469e+01 *S 2.265e-01 1.483e-01 
writeback_value_o\[20\] O *L 2.469e+01 *S 2.265e-01 1.483e-01 
writeback_value_o\[19\] O *L 2.469e+01 *S 2.265e-01 1.483e-01 
writeback_value_o\[18\] O *L 2.469e+01 *S 2.265e-01 1.483e-01 
writeback_value_o\[17\] O *L 2.469e+01 *S 2.265e-01 1.483e-01 
writeback_value_o\[16\] O *L 2.469e+01 *S 2.265e-01 1.483e-01 
writeback_value_o\[15\] O *L 2.469e+01 *S 2.178e-01 8.414e-02 
writeback_value_o\[14\] O *L 2.469e+01 *S 2.178e-01 8.414e-02 
writeback_value_o\[13\] O *L 2.469e+01 *S 2.178e-01 8.414e-02 
writeback_value_o\[12\] O *L 2.469e+01 *S 2.178e-01 8.414e-02 
writeback_value_o\[11\] O *L 2.469e+01 *S 2.178e-01 8.414e-02 
writeback_value_o\[10\] O *L 2.469e+01 *S 2.178e-01 8.414e-02 
writeback_value_o\[9\] O *L 2.469e+01 *S 2.178e-01 8.414e-02 
writeback_value_o\[8\] O *L 2.469e+01 *S 2.178e-01 8.414e-02 
writeback_value_o\[7\] O *L 2.469e+01 *S 4.895e-01 1.005e-01 
writeback_value_o\[6\] O *L 2.469e+01 *S 4.895e-01 1.005e-01 
writeback_value_o\[5\] O *L 2.469e+01 *S 4.895e-01 1.005e-01 
writeback_value_o\[4\] O *L 2.469e+01 *S 4.895e-01 1.005e-01 
writeback_value_o\[3\] O *L 2.469e+01 *S 4.895e-01 1.005e-01 
writeback_value_o\[2\] O *L 2.469e+01 *S 4.895e-01 1.005e-01 
writeback_value_o\[1\] O *L 2.469e+01 *S 4.895e-01 1.005e-01 
writeback_value_o\[0\] O *L 2.469e+01 *S 4.895e-01 1.005e-01 
rob_idx_o\[4\] O *L 2.469e+01 *S 1.923e-01 7.891e-02 
rob_idx_o\[3\] O *L 2.469e+01 *S 1.923e-01 7.891e-02 
rob_idx_o\[2\] O *L 2.469e+01 *S 1.923e-01 7.891e-02 
rob_idx_o\[1\] O *L 2.469e+01 *S 1.923e-01 7.891e-02 
rob_idx_o\[0\] O *L 2.469e+01 *S 1.923e-01 7.891e-02 
dmem_csb_write_o O *L 2.469e+01 *S 3.045e-01 1.922e-01 
dmem_wmask_o\[3\] O *L 2.469e+01 *S 4.119e-01 8.535e-02 
dmem_wmask_o\[2\] O *L 2.469e+01 *S 2.167e-01 1.414e-01 
dmem_wmask_o\[1\] O *L 2.469e+01 *S 4.103e-01 6.443e-02 
dmem_wmask_o\[0\] O *L 2.469e+01 *S 2.167e-01 1.414e-01 
dmem_waddr_o\[7\] O *L 2.469e+01 *S 2.320e-01 1.039e-01 
dmem_waddr_o\[6\] O *L 2.469e+01 *S 2.320e-01 1.039e-01 
dmem_waddr_o\[5\] O *L 2.469e+01 *S 4.890e-01 1.450e-01 
dmem_waddr_o\[4\] O *L 2.469e+01 *S 4.890e-01 1.450e-01 
dmem_waddr_o\[3\] O *L 2.469e+01 *S 4.890e-01 1.450e-01 
dmem_waddr_o\[2\] O *L 2.469e+01 *S 2.292e-01 1.560e-01 
dmem_waddr_o\[1\] O *L 2.469e+01 *S 2.292e-01 1.560e-01 
dmem_waddr_o\[0\] O *L 2.469e+01 *S 2.292e-01 1.560e-01 
dmem_din_o\[31\] O *L 2.469e+01 *S 2.167e-01 1.414e-01 
dmem_din_o\[30\] O *L 2.469e+01 *S 2.167e-01 1.414e-01 
dmem_din_o\[29\] O *L 2.469e+01 *S 2.167e-01 1.414e-01 
dmem_din_o\[28\] O *L 2.469e+01 *S 2.167e-01 1.414e-01 
dmem_din_o\[27\] O *L 2.469e+01 *S 2.167e-01 1.414e-01 
dmem_din_o\[26\] O *L 2.469e+01 *S 2.167e-01 1.414e-01 
dmem_din_o\[25\] O *L 2.469e+01 *S 2.167e-01 1.414e-01 
dmem_din_o\[24\] O *L 2.469e+01 *S 2.167e-01 1.414e-01 
dmem_din_o\[23\] O *L 2.469e+01 *S 2.167e-01 1.414e-01 
dmem_din_o\[22\] O *L 2.469e+01 *S 2.167e-01 1.414e-01 
dmem_din_o\[21\] O *L 2.469e+01 *S 2.167e-01 1.414e-01 
dmem_din_o\[20\] O *L 2.469e+01 *S 2.167e-01 1.414e-01 
dmem_din_o\[19\] O *L 2.469e+01 *S 2.167e-01 1.414e-01 
dmem_din_o\[18\] O *L 2.469e+01 *S 2.167e-01 1.414e-01 
dmem_din_o\[17\] O *L 2.469e+01 *S 2.167e-01 1.414e-01 
dmem_din_o\[16\] O *L 2.469e+01 *S 2.167e-01 1.414e-01 
dmem_din_o\[15\] O *L 2.469e+01 *S 2.167e-01 1.414e-01 
dmem_din_o\[14\] O *L 2.469e+01 *S 2.167e-01 1.414e-01 
dmem_din_o\[13\] O *L 2.469e+01 *S 2.167e-01 1.414e-01 
dmem_din_o\[12\] O *L 2.469e+01 *S 2.167e-01 1.414e-01 
dmem_din_o\[11\] O *L 2.469e+01 *S 2.167e-01 1.414e-01 
dmem_din_o\[10\] O *L 2.469e+01 *S 2.167e-01 1.414e-01 
dmem_din_o\[9\] O *L 2.469e+01 *S 2.167e-01 1.414e-01 
dmem_din_o\[8\] O *L 2.469e+01 *S 2.167e-01 1.414e-01 
dmem_din_o\[7\] O *L 2.469e+01 *S 2.167e-01 1.414e-01 
dmem_din_o\[6\] O *L 2.469e+01 *S 2.167e-01 1.414e-01 
dmem_din_o\[5\] O *L 2.469e+01 *S 2.167e-01 1.414e-01 
dmem_din_o\[4\] O *L 2.469e+01 *S 2.167e-01 1.414e-01 
dmem_din_o\[3\] O *L 2.469e+01 *S 2.167e-01 1.414e-01 
dmem_din_o\[2\] O *L 2.469e+01 *S 2.167e-01 1.414e-01 
dmem_din_o\[1\] O *L 2.469e+01 *S 2.167e-01 1.414e-01 
dmem_din_o\[0\] O *L 2.469e+01 *S 2.167e-01 1.414e-01 
dmem_csb_read_o O *L 2.469e+01 *S 2.780e-01 1.772e-01 
dmem_raddr_o\[7\] O *L 2.469e+01 *S 2.320e-01 1.039e-01 
dmem_raddr_o\[6\] O *L 2.469e+01 *S 2.320e-01 1.039e-01 
dmem_raddr_o\[5\] O *L 2.469e+01 *S 2.654e-01 9.081e-02 
dmem_raddr_o\[4\] O *L 2.469e+01 *S 2.654e-01 9.081e-02 
dmem_raddr_o\[3\] O *L 2.469e+01 *S 2.654e-01 9.081e-02 
dmem_raddr_o\[2\] O *L 2.469e+01 *S 2.466e-01 1.642e-01 
dmem_raddr_o\[1\] O *L 2.469e+01 *S 2.466e-01 1.642e-01 
dmem_raddr_o\[0\] O *L 2.469e+01 *S 2.466e-01 1.642e-01 
dmem_dout_i\[31\] I *L 0.000e+00 *S 1.635e-02 1.635e-02 
dmem_dout_i\[30\] I *L 0.000e+00 *S 1.635e-02 1.635e-02 
dmem_dout_i\[29\] I *L 0.000e+00 *S 1.635e-02 1.635e-02 
dmem_dout_i\[28\] I *L 0.000e+00 *S 1.635e-02 1.635e-02 
dmem_dout_i\[27\] I *L 0.000e+00 *S 1.635e-02 1.635e-02 
dmem_dout_i\[26\] I *L 0.000e+00 *S 1.635e-02 1.635e-02 
dmem_dout_i\[25\] I *L 0.000e+00 *S 1.635e-02 1.635e-02 
dmem_dout_i\[24\] I *L 0.000e+00 *S 1.635e-02 1.635e-02 
dmem_dout_i\[23\] I *L 0.000e+00 *S 1.635e-02 1.635e-02 
dmem_dout_i\[22\] I *L 0.000e+00 *S 1.635e-02 1.635e-02 
dmem_dout_i\[21\] I *L 0.000e+00 *S 1.635e-02 1.635e-02 
dmem_dout_i\[20\] I *L 0.000e+00 *S 1.635e-02 1.635e-02 
dmem_dout_i\[19\] I *L 0.000e+00 *S 1.635e-02 1.635e-02 
dmem_dout_i\[18\] I *L 0.000e+00 *S 1.635e-02 1.635e-02 
dmem_dout_i\[17\] I *L 0.000e+00 *S 1.635e-02 1.635e-02 
dmem_dout_i\[16\] I *L 0.000e+00 *S 1.635e-02 1.635e-02 
dmem_dout_i\[15\] I *L 0.000e+00 *S 4.586e-02 4.586e-02 
dmem_dout_i\[14\] I *L 0.000e+00 *S 2.788e-02 2.788e-02 
dmem_dout_i\[13\] I *L 0.000e+00 *S 2.788e-02 2.788e-02 
dmem_dout_i\[12\] I *L 0.000e+00 *S 2.788e-02 2.788e-02 
dmem_dout_i\[11\] I *L 0.000e+00 *S 2.788e-02 2.788e-02 
dmem_dout_i\[10\] I *L 0.000e+00 *S 2.788e-02 2.788e-02 
dmem_dout_i\[9\] I *L 0.000e+00 *S 2.788e-02 2.788e-02 
dmem_dout_i\[8\] I *L 0.000e+00 *S 2.788e-02 2.788e-02 
dmem_dout_i\[7\] I *L 0.000e+00 *S 3.451e-02 3.451e-02 
dmem_dout_i\[6\] I *L 0.000e+00 *S 3.451e-02 3.451e-02 
dmem_dout_i\[5\] I *L 0.000e+00 *S 3.451e-02 3.451e-02 
dmem_dout_i\[4\] I *L 0.000e+00 *S 3.451e-02 3.451e-02 
dmem_dout_i\[3\] I *L 0.000e+00 *S 3.451e-02 3.451e-02 
dmem_dout_i\[2\] I *L 0.000e+00 *S 3.451e-02 3.451e-02 
dmem_dout_i\[1\] I *L 0.000e+00 *S 3.451e-02 3.451e-02 
dmem_dout_i\[0\] I *L 0.000e+00 *S 3.451e-02 3.451e-02 

*R_NET clk_i 9.205e+01
*DRIVER clk_i
*CELL NULL
*C2_R1_C1 4.603e+01 8.644e-01 4.603e+01 
*LOADS
*RC rob_idx_o_reg_4_:CK 2.729e-02
*RC mem_load_success_reg:CK 2.729e-02
*RC rob_idx_o_reg_0_:CK 2.729e-02
*RC rob_idx_o_reg_1_:CK 2.729e-02
*RC rob_idx_o_reg_2_:CK 2.729e-02
*RC rob_idx_o_reg_3_:CK 2.729e-02
*RC lsu_fifo/mem_reg_1__11_:CK 2.729e-02
*RC lsu_fifo/wr_ptr_reg_0_:CK 2.729e-02
*RC lsu_fifo/mem_reg_1__5_:CK 2.729e-02
*RC lsu_fifo/rd_ptr_reg_1_:CK 2.729e-02
*RC lsu_fifo/mem_reg_3__1_:CK 2.729e-02
*RC lsu_fifo/mem_reg_3__2_:CK 2.729e-02
*RC lsu_fifo/mem_reg_3__3_:CK 2.729e-02
*RC lsu_fifo/mem_reg_3__4_:CK 2.729e-02
*RC lsu_fifo/mem_reg_3__5_:CK 2.729e-02
*RC lsu_fifo/mem_reg_3__6_:CK 2.729e-02
*RC lsu_fifo/mem_reg_3__7_:CK 2.729e-02
*RC lsu_fifo/mem_reg_3__8_:CK 2.729e-02
*RC lsu_fifo/mem_reg_3__9_:CK 2.729e-02
*RC lsu_fifo/mem_reg_3__10_:CK 2.729e-02
*RC lsu_fifo/mem_reg_3__11_:CK 2.729e-02
*RC lsu_fifo/mem_reg_2__1_:CK 2.729e-02
*RC lsu_fifo/mem_reg_2__2_:CK 2.729e-02
*RC lsu_fifo/mem_reg_2__3_:CK 2.729e-02
*RC lsu_fifo/mem_reg_2__4_:CK 2.729e-02
*RC lsu_fifo/mem_reg_2__5_:CK 2.729e-02
*RC lsu_fifo/mem_reg_2__6_:CK 2.729e-02
*RC lsu_fifo/mem_reg_2__7_:CK 2.729e-02
*RC lsu_fifo/mem_reg_2__8_:CK 2.729e-02
*RC lsu_fifo/mem_reg_2__9_:CK 2.729e-02
*RC lsu_fifo/mem_reg_2__10_:CK 2.729e-02
*RC lsu_fifo/mem_reg_2__11_:CK 2.729e-02
*RC lsu_fifo/mem_reg_1__1_:CK 2.729e-02
*RC lsu_fifo/mem_reg_1__2_:CK 2.729e-02
*RC lsu_fifo/mem_reg_1__3_:CK 2.729e-02
*RC lsu_fifo/mem_reg_1__4_:CK 2.729e-02
*RC lsu_fifo/mem_reg_1__6_:CK 2.729e-02
*RC lsu_fifo/mem_reg_1__7_:CK 2.729e-02
*RC lsu_fifo/mem_reg_1__8_:CK 2.729e-02
*RC lsu_fifo/mem_reg_1__9_:CK 2.729e-02
*RC lsu_fifo/mem_reg_1__10_:CK 2.729e-02
*RC lsu_fifo/mem_reg_0__1_:CK 2.729e-02
*RC lsu_fifo/mem_reg_0__2_:CK 2.729e-02
*RC lsu_fifo/mem_reg_0__3_:CK 2.729e-02
*RC lsu_fifo/mem_reg_0__4_:CK 2.729e-02
*RC lsu_fifo/mem_reg_0__5_:CK 2.729e-02
*RC lsu_fifo/mem_reg_0__6_:CK 2.729e-02
*RC lsu_fifo/mem_reg_0__7_:CK 2.729e-02
*RC lsu_fifo/mem_reg_0__8_:CK 2.729e-02
*RC lsu_fifo/mem_reg_0__9_:CK 2.729e-02
*RC lsu_fifo/mem_reg_0__10_:CK 2.729e-02
*RC lsu_fifo/mem_reg_0__11_:CK 2.729e-02
*RC lsu_fifo/wr_ptr_reg_1_:CK 2.729e-02
*RC lsu_fifo/rd_ptr_reg_0_:CK 2.729e-02
*END

*R_NET lsu_request_i 1.004e+01
*DRIVER lsu_request_i
*CELL NULL
*C2_R1_C1 5.021e+00 4.254e-02 5.021e+00 
*LOADS
*RC lsu_fifo/U54:A1 1.694e-02
*RC lsu_fifo/U88:A2 1.720e-02
*RC lsu_fifo/U102:A1 1.694e-02
*RC lsu_fifo/U115:A 1.758e-02
*RC lsu_fifo/U118:B1 1.677e-02
*END

*R_NET inst_i\[27\] 2.533e+00
*DRIVER inst_i\[27\]
*CELL NULL
*C2_R1_C1 1.267e+00 6.236e-03 1.267e+00 
*LOADS
*RC U210:A 1.580e-02
*END

*R_NET inst_i\[26\] 3.909e+00
*DRIVER inst_i\[26\]
*CELL NULL
*C2_R1_C1 1.954e+00 1.407e-02 1.954e+00 
*LOADS
*RC U205:A1 1.349e-02
*RC U206:A1 1.401e-02
*END

*R_NET inst_i\[25\] 7.397e+00
*DRIVER inst_i\[25\]
*CELL NULL
*C2_R1_C1 3.699e+00 3.293e-02 3.699e+00 
*LOADS
*RC U203:A1 1.081e-02
*RC U204:A1 1.690e-02
*RC U208:A1 1.628e-02
*RC U213:A1 1.690e-02
*END

*R_NET inst_i\[24\] 4.011e+00
*DRIVER inst_i\[24\]
*CELL NULL
*C2_R1_C1 2.005e+00 6.236e-03 2.005e+00 
*LOADS
*RC intadd_1_U2:A 2.501e-02
*END

*R_NET inst_i\[23\] 4.011e+00
*DRIVER inst_i\[23\]
*CELL NULL
*C2_R1_C1 2.005e+00 6.236e-03 2.005e+00 
*LOADS
*RC intadd_1_U3:A 2.501e-02
*END

*R_NET inst_i\[22\] 4.011e+00
*DRIVER inst_i\[22\]
*CELL NULL
*C2_R1_C1 2.005e+00 6.236e-03 2.005e+00 
*LOADS
*RC intadd_1_U4:A 2.501e-02
*END

*R_NET inst_i\[21\] 4.011e+00
*DRIVER inst_i\[21\]
*CELL NULL
*C2_R1_C1 2.005e+00 6.236e-03 2.005e+00 
*LOADS
*RC intadd_1_U5:A 2.501e-02
*END

*R_NET inst_i\[20\] 1.953e+00
*DRIVER inst_i\[20\]
*CELL NULL
*C2_R1_C1 9.767e-01 6.236e-03 9.767e-01 
*LOADS
*RC U160:A 1.218e-02
*END

*R_NET inst_i\[14\] 1.916e+00
*DRIVER inst_i\[14\]
*CELL NULL
*C2_R1_C1 9.582e-01 6.236e-03 9.582e-01 
*LOADS
*RC U171:A 1.195e-02
*END

*R_NET inst_i\[13\] 8.068e+00
*DRIVER inst_i\[13\]
*CELL NULL
*C2_R1_C1 4.034e+00 3.293e-02 4.034e+00 
*LOADS
*RC U166:A 1.690e-02
*RC U171:C2 1.683e-02
*RC U171:B2 1.644e-02
*RC U172:C1 1.624e-02
*END

*R_NET inst_i\[12\] 3.753e+00
*DRIVER inst_i\[12\]
*CELL NULL
*C2_R1_C1 1.876e+00 1.407e-02 1.876e+00 
*LOADS
*RC U171:B1 1.335e-02
*RC U172:C2 1.305e-02
*END

*R_NET inst_i\[11\] 4.011e+00
*DRIVER inst_i\[11\]
*CELL NULL
*C2_R1_C1 2.005e+00 6.236e-03 2.005e+00 
*LOADS
*RC intadd_0_U2:A 2.501e-02
*END

*R_NET inst_i\[10\] 4.011e+00
*DRIVER inst_i\[10\]
*CELL NULL
*C2_R1_C1 2.005e+00 6.236e-03 2.005e+00 
*LOADS
*RC intadd_0_U3:A 2.501e-02
*END

*R_NET inst_i\[9\] 4.011e+00
*DRIVER inst_i\[9\]
*CELL NULL
*C2_R1_C1 2.005e+00 6.236e-03 2.005e+00 
*LOADS
*RC intadd_0_U4:A 2.501e-02
*END

*R_NET inst_i\[8\] 4.011e+00
*DRIVER inst_i\[8\]
*CELL NULL
*C2_R1_C1 2.005e+00 6.236e-03 2.005e+00 
*LOADS
*RC intadd_0_U5:A 2.501e-02
*END

*R_NET inst_i\[7\] 3.185e+00
*DRIVER inst_i\[7\]
*CELL NULL
*C2_R1_C1 1.592e+00 1.407e-02 1.592e+00 
*LOADS
*RC U165:A1 8.752e-03
*RC U167:A2 1.365e-02
*END

*R_NET inst_i\[6\] 1.952e+00
*DRIVER inst_i\[6\]
*CELL NULL
*C2_R1_C1 9.758e-01 6.236e-03 9.758e-01 
*LOADS
*RC U155:A1 1.217e-02
*END

*R_NET inst_i\[5\] 3.956e+00
*DRIVER inst_i\[5\]
*CELL NULL
*C2_R1_C1 1.978e+00 1.407e-02 1.978e+00 
*LOADS
*RC U158:A2 1.381e-02
*RC U163:A 1.402e-02
*END

*R_NET inst_i\[4\] 1.991e+00
*DRIVER inst_i\[4\]
*CELL NULL
*C2_R1_C1 9.954e-01 6.236e-03 9.954e-01 
*LOADS
*RC U157:A1 1.241e-02
*END

*R_NET inst_i\[3\] 1.901e+00
*DRIVER inst_i\[3\]
*CELL NULL
*C2_R1_C1 9.505e-01 6.236e-03 9.505e-01 
*LOADS
*RC U155:A2 1.185e-02
*END

*R_NET inst_i\[2\] 1.908e+00
*DRIVER inst_i\[2\]
*CELL NULL
*C2_R1_C1 9.541e-01 6.236e-03 9.541e-01 
*LOADS
*RC U157:A2 1.190e-02
*END

*R_NET inst_i\[1\] 1.881e+00
*DRIVER inst_i\[1\]
*CELL NULL
*C2_R1_C1 9.406e-01 6.236e-03 9.406e-01 
*LOADS
*RC U156:A1 1.173e-02
*END

*R_NET inst_i\[0\] 1.909e+00
*DRIVER inst_i\[0\]
*CELL NULL
*C2_R1_C1 9.544e-01 6.236e-03 9.544e-01 
*LOADS
*RC U156:A2 1.190e-02
*END

*R_NET rs1_value_i\[7\] 2.847e+00
*DRIVER rs1_value_i\[7\]
*CELL NULL
*C2_R1_C1 1.424e+00 6.236e-03 1.424e+00 
*LOADS
*RC U210:B 1.775e-02
*END

*R_NET rs1_value_i\[6\] 3.903e+00
*DRIVER rs1_value_i\[6\]
*CELL NULL
*C2_R1_C1 1.952e+00 1.407e-02 1.952e+00 
*LOADS
*RC U205:A2 1.381e-02
*RC U206:A2 1.365e-02
*END

*R_NET rs1_value_i\[5\] 7.414e+00
*DRIVER rs1_value_i\[5\]
*CELL NULL
*C2_R1_C1 3.707e+00 3.293e-02 3.707e+00 
*LOADS
*RC U203:A2 1.086e-02
*RC U204:A2 1.677e-02
*RC U208:A2 1.665e-02
*RC U213:A2 1.677e-02
*END

*R_NET rs1_value_i\[4\] 7.645e+00
*DRIVER rs1_value_i\[4\]
*CELL NULL
*C2_R1_C1 3.823e+00 1.407e-02 3.823e+00 
*LOADS
*RC intadd_1_U2:B 2.689e-02
*RC intadd_0_U2:B 2.689e-02
*END

*R_NET rs1_value_i\[3\] 7.645e+00
*DRIVER rs1_value_i\[3\]
*CELL NULL
*C2_R1_C1 3.823e+00 1.407e-02 3.823e+00 
*LOADS
*RC intadd_1_U3:B 2.689e-02
*RC intadd_0_U3:B 2.689e-02
*END

*R_NET rs1_value_i\[2\] 7.645e+00
*DRIVER rs1_value_i\[2\]
*CELL NULL
*C2_R1_C1 3.823e+00 1.407e-02 3.823e+00 
*LOADS
*RC intadd_1_U4:B 2.689e-02
*RC intadd_0_U4:B 2.689e-02
*END

*R_NET rs1_value_i\[1\] 7.645e+00
*DRIVER rs1_value_i\[1\]
*CELL NULL
*C2_R1_C1 3.823e+00 1.407e-02 3.823e+00 
*LOADS
*RC intadd_1_U5:B 2.689e-02
*RC intadd_0_U5:B 2.689e-02
*END

*R_NET rs1_value_i\[0\] 5.371e+00
*DRIVER rs1_value_i\[0\]
*CELL NULL
*C2_R1_C1 2.686e+00 2.308e-02 2.686e+00 
*LOADS
*RC U159:A 1.559e-02
*RC U165:A2 1.017e-02
*RC U167:A1 1.557e-02
*END

*R_NET rob_idx_i\[4\] 1.419e+00
*DRIVER rob_idx_i\[4\]
*CELL NULL
*C2_R1_C1 7.094e-01 6.236e-03 7.094e-01 
*LOADS
*RC rob_idx_o_reg_4_:D 8.848e-03
*END

*R_NET rob_idx_i\[3\] 1.419e+00
*DRIVER rob_idx_i\[3\]
*CELL NULL
*C2_R1_C1 7.094e-01 6.236e-03 7.094e-01 
*LOADS
*RC rob_idx_o_reg_3_:D 8.848e-03
*END

*R_NET rob_idx_i\[2\] 1.419e+00
*DRIVER rob_idx_i\[2\]
*CELL NULL
*C2_R1_C1 7.094e-01 6.236e-03 7.094e-01 
*LOADS
*RC rob_idx_o_reg_2_:D 8.848e-03
*END

*R_NET rob_idx_i\[1\] 1.419e+00
*DRIVER rob_idx_i\[1\]
*CELL NULL
*C2_R1_C1 7.094e-01 6.236e-03 7.094e-01 
*LOADS
*RC rob_idx_o_reg_1_:D 8.848e-03
*END

*R_NET rob_idx_i\[0\] 1.419e+00
*DRIVER rob_idx_i\[0\]
*CELL NULL
*C2_R1_C1 7.094e-01 6.236e-03 7.094e-01 
*LOADS
*RC rob_idx_o_reg_0_:D 8.848e-03
*END

*R_NET writeback_valid_o 3.312e+01
*DRIVER mem_load_success_reg:Q
*CELL DFF_X1
*C2_R1_C1 1.656e+01 4.254e-02 1.656e+01 
*LOADS
*RC writeback_valid_o 2.137e-01
*RC U215:A1 1.694e-02
*RC lsu_fifo/U120:A 1.758e-02
*RC lsu_fifo/U121:B1 1.677e-02
*RC lsu_fifo/U122:B1 1.677e-02
*END

*R_NET writeback_value_o\[31\] 2.500e+01
*DRIVER U226:ZN
*CELL NAND2_X1
*C2_R1_C1 1.250e+01 6.236e-03 1.250e+01 
*LOADS
*RC writeback_value_o\[31\] 1.559e-01
*END

*R_NET writeback_value_o\[30\] 2.500e+01
*DRIVER U227:ZN
*CELL NAND2_X1
*C2_R1_C1 1.250e+01 6.236e-03 1.250e+01 
*LOADS
*RC writeback_value_o\[30\] 1.559e-01
*END

*R_NET writeback_value_o\[29\] 2.500e+01
*DRIVER U251:ZN
*CELL NAND2_X1
*C2_R1_C1 1.250e+01 6.236e-03 1.250e+01 
*LOADS
*RC writeback_value_o\[29\] 1.559e-01
*END

*R_NET writeback_value_o\[28\] 2.500e+01
*DRIVER U268:ZN
*CELL NAND2_X1
*C2_R1_C1 1.250e+01 6.236e-03 1.250e+01 
*LOADS
*RC writeback_value_o\[28\] 1.559e-01
*END

*R_NET writeback_value_o\[27\] 2.500e+01
*DRIVER U271:ZN
*CELL NAND2_X1
*C2_R1_C1 1.250e+01 6.236e-03 1.250e+01 
*LOADS
*RC writeback_value_o\[27\] 1.559e-01
*END

*R_NET writeback_value_o\[26\] 2.500e+01
*DRIVER U272:ZN
*CELL NAND2_X1
*C2_R1_C1 1.250e+01 6.236e-03 1.250e+01 
*LOADS
*RC writeback_value_o\[26\] 1.559e-01
*END

*R_NET writeback_value_o\[25\] 2.500e+01
*DRIVER U273:ZN
*CELL NAND2_X1
*C2_R1_C1 1.250e+01 6.236e-03 1.250e+01 
*LOADS
*RC writeback_value_o\[25\] 1.559e-01
*END

*R_NET writeback_value_o\[24\] 2.500e+01
*DRIVER U274:ZN
*CELL NAND2_X1
*C2_R1_C1 1.250e+01 6.236e-03 1.250e+01 
*LOADS
*RC writeback_value_o\[24\] 1.559e-01
*END

*R_NET writeback_value_o\[23\] 2.500e+01
*DRIVER U241:ZN
*CELL NAND2_X1
*C2_R1_C1 1.250e+01 6.236e-03 1.250e+01 
*LOADS
*RC writeback_value_o\[23\] 1.559e-01
*END

*R_NET writeback_value_o\[22\] 2.500e+01
*DRIVER U231:ZN
*CELL NAND2_X1
*C2_R1_C1 1.250e+01 6.236e-03 1.250e+01 
*LOADS
*RC writeback_value_o\[22\] 1.559e-01
*END

*R_NET writeback_value_o\[21\] 2.500e+01
*DRIVER U245:ZN
*CELL NAND2_X1
*C2_R1_C1 1.250e+01 6.236e-03 1.250e+01 
*LOADS
*RC writeback_value_o\[21\] 1.559e-01
*END

*R_NET writeback_value_o\[20\] 2.500e+01
*DRIVER U237:ZN
*CELL NAND2_X1
*C2_R1_C1 1.250e+01 6.236e-03 1.250e+01 
*LOADS
*RC writeback_value_o\[20\] 1.559e-01
*END

*R_NET writeback_value_o\[19\] 2.500e+01
*DRIVER U239:ZN
*CELL NAND2_X1
*C2_R1_C1 1.250e+01 6.236e-03 1.250e+01 
*LOADS
*RC writeback_value_o\[19\] 1.559e-01
*END

*R_NET writeback_value_o\[18\] 2.500e+01
*DRIVER U243:ZN
*CELL NAND2_X1
*C2_R1_C1 1.250e+01 6.236e-03 1.250e+01 
*LOADS
*RC writeback_value_o\[18\] 1.559e-01
*END

*R_NET writeback_value_o\[17\] 2.500e+01
*DRIVER U235:ZN
*CELL NAND2_X1
*C2_R1_C1 1.250e+01 6.236e-03 1.250e+01 
*LOADS
*RC writeback_value_o\[17\] 1.559e-01
*END

*R_NET writeback_value_o\[16\] 2.500e+01
*DRIVER U233:ZN
*CELL NAND2_X1
*C2_R1_C1 1.250e+01 6.236e-03 1.250e+01 
*LOADS
*RC writeback_value_o\[16\] 1.559e-01
*END

*R_NET writeback_value_o\[7\] 2.500e+01
*DRIVER U267:ZN
*CELL NOR2_X1
*C2_R1_C1 1.250e+01 6.236e-03 1.250e+01 
*LOADS
*RC writeback_value_o\[7\] 1.559e-01
*END

*R_NET writeback_value_o\[6\] 2.500e+01
*DRIVER U265:ZN
*CELL NOR2_X1
*C2_R1_C1 1.250e+01 6.236e-03 1.250e+01 
*LOADS
*RC writeback_value_o\[6\] 1.559e-01
*END

*R_NET writeback_value_o\[5\] 2.500e+01
*DRIVER U263:ZN
*CELL NOR2_X1
*C2_R1_C1 1.250e+01 6.236e-03 1.250e+01 
*LOADS
*RC writeback_value_o\[5\] 1.559e-01
*END

*R_NET writeback_value_o\[4\] 2.500e+01
*DRIVER U261:ZN
*CELL NOR2_X1
*C2_R1_C1 1.250e+01 6.236e-03 1.250e+01 
*LOADS
*RC writeback_value_o\[4\] 1.559e-01
*END

*R_NET writeback_value_o\[3\] 2.500e+01
*DRIVER U259:ZN
*CELL NOR2_X1
*C2_R1_C1 1.250e+01 6.236e-03 1.250e+01 
*LOADS
*RC writeback_value_o\[3\] 1.559e-01
*END

*R_NET writeback_value_o\[2\] 2.500e+01
*DRIVER U257:ZN
*CELL NOR2_X1
*C2_R1_C1 1.250e+01 6.236e-03 1.250e+01 
*LOADS
*RC writeback_value_o\[2\] 1.559e-01
*END

*R_NET writeback_value_o\[1\] 2.500e+01
*DRIVER U255:ZN
*CELL NOR2_X1
*C2_R1_C1 1.250e+01 6.236e-03 1.250e+01 
*LOADS
*RC writeback_value_o\[1\] 1.559e-01
*END

*R_NET writeback_value_o\[0\] 2.500e+01
*DRIVER U253:ZN
*CELL NOR2_X1
*C2_R1_C1 1.250e+01 6.236e-03 1.250e+01 
*LOADS
*RC writeback_value_o\[0\] 1.559e-01
*END

*R_NET rob_idx_o\[4\] 2.500e+01
*DRIVER rob_idx_o_reg_4_:Q
*CELL DFF_X1
*C2_R1_C1 1.250e+01 6.236e-03 1.250e+01 
*LOADS
*RC rob_idx_o\[4\] 1.559e-01
*END

*R_NET rob_idx_o\[3\] 2.500e+01
*DRIVER rob_idx_o_reg_3_:Q
*CELL DFF_X1
*C2_R1_C1 1.250e+01 6.236e-03 1.250e+01 
*LOADS
*RC rob_idx_o\[3\] 1.559e-01
*END

*R_NET rob_idx_o\[2\] 2.500e+01
*DRIVER rob_idx_o_reg_2_:Q
*CELL DFF_X1
*C2_R1_C1 1.250e+01 6.236e-03 1.250e+01 
*LOADS
*RC rob_idx_o\[2\] 1.559e-01
*END

*R_NET rob_idx_o\[1\] 2.500e+01
*DRIVER rob_idx_o_reg_1_:Q
*CELL DFF_X1
*C2_R1_C1 1.250e+01 6.236e-03 1.250e+01 
*LOADS
*RC rob_idx_o\[1\] 1.559e-01
*END

*R_NET rob_idx_o\[0\] 2.500e+01
*DRIVER rob_idx_o_reg_0_:Q
*CELL DFF_X1
*C2_R1_C1 1.250e+01 6.236e-03 1.250e+01 
*LOADS
*RC rob_idx_o\[0\] 1.559e-01
*END

*R_NET dmem_csb_write_o 3.425e+01
*DRIVER U158:ZN
*CELL NAND2_X1
*C2_R1_C1 1.713e+01 3.293e-02 1.713e+01 
*LOADS
*RC dmem_csb_write_o 2.067e-01
*RC U135:A2 3.041e-02
*RC U136:A 2.800e-02
*RC U143:A 1.690e-02
*END

*R_NET dmem_wmask_o\[3\] 2.615e+01
*DRIVER U136:ZN
*CELL AOI211_X2
*C2_R1_C1 1.308e+01 1.407e-02 1.308e+01 
*LOADS
*RC dmem_wmask_o\[3\] 1.762e-01
*RC U173:A 7.789e-03
*END

*R_NET dmem_wmask_o\[1\] 2.615e+01
*DRIVER U135:ZN
*CELL NOR3_X2
*C2_R1_C1 1.308e+01 1.407e-02 1.308e+01 
*LOADS
*RC dmem_wmask_o\[1\] 1.762e-01
*RC U174:A 7.789e-03
*END

*R_NET dmem_waddr_o\[5\] 2.500e+01
*DRIVER U247:ZN
*CELL XNOR2_X1
*C2_R1_C1 1.250e+01 6.236e-03 1.250e+01 
*LOADS
*RC dmem_waddr_o\[5\] 1.559e-01
*END

*R_NET dmem_waddr_o\[4\] 2.500e+01
*DRIVER U214:ZN
*CELL XNOR2_X1
*C2_R1_C1 1.250e+01 6.236e-03 1.250e+01 
*LOADS
*RC dmem_waddr_o\[4\] 1.559e-01
*END

*R_NET dmem_waddr_o\[3\] 2.500e+01
*DRIVER U212:ZN
*CELL XNOR2_X1
*C2_R1_C1 1.250e+01 6.236e-03 1.250e+01 
*LOADS
*RC dmem_waddr_o\[3\] 1.559e-01
*END

*R_NET dmem_waddr_o\[2\] 2.500e+01
*DRIVER intadd_0_U2:S
*CELL FA_X1
*C2_R1_C1 1.250e+01 6.236e-03 1.250e+01 
*LOADS
*RC dmem_waddr_o\[2\] 1.559e-01
*END

*R_NET dmem_waddr_o\[1\] 2.500e+01
*DRIVER intadd_0_U3:S
*CELL FA_X1
*C2_R1_C1 1.250e+01 6.236e-03 1.250e+01 
*LOADS
*RC dmem_waddr_o\[1\] 1.559e-01
*END

*R_NET dmem_waddr_o\[0\] 2.500e+01
*DRIVER intadd_0_U4:S
*CELL FA_X1
*C2_R1_C1 1.250e+01 6.236e-03 1.250e+01 
*LOADS
*RC dmem_waddr_o\[0\] 1.559e-01
*END

*R_NET rs2_value_i\[31\] 1.067e+00
*DRIVER rs2_value_i\[31\]
*CELL NULL
*C2_R1_C1 5.337e-01 6.236e-03 5.337e-01 
*LOADS
*RC U154:A 6.657e-03
*END

*R_NET rs2_value_i\[30\] 1.067e+00
*DRIVER rs2_value_i\[30\]
*CELL NULL
*C2_R1_C1 5.337e-01 6.236e-03 5.337e-01 
*LOADS
*RC U175:A 6.657e-03
*END

*R_NET rs2_value_i\[29\] 1.067e+00
*DRIVER rs2_value_i\[29\]
*CELL NULL
*C2_R1_C1 5.337e-01 6.236e-03 5.337e-01 
*LOADS
*RC U176:A 6.657e-03
*END

*R_NET rs2_value_i\[28\] 1.067e+00
*DRIVER rs2_value_i\[28\]
*CELL NULL
*C2_R1_C1 5.337e-01 6.236e-03 5.337e-01 
*LOADS
*RC U177:A 6.657e-03
*END
