*SPEF "IEEE 1481-1999"
*DESIGN "fetch"
*DATE "Tue Jun  6 21:41:04 2023"
*VENDOR "SYNOPSYS INC"
*PROGRAM "Synopsys Design Compiler cmos"
*VERSION "T-2022.03-SP3"
*DESIGN_FLOW "SYNTHESIS"
*DIVIDER /
*DELIMITER :
*BUS_DELIMITER []
*T_UNIT 1.0 NS
*C_UNIT 0.0010 PF
*R_UNIT 1000.0 KOHM
*L_UNIT 1.0 HENRY

*PORTS

clk_i I *L 0.000e+00 *S 1.481e+00 1.481e+00 
reset_i I *L 0.000e+00 *S 0.000e+00 0.000e+00 
stall_i I *L 0.000e+00 *S 5.188e-02 5.188e-02 
pc_sel_i I *L 0.000e+00 *S 3.482e-02 3.482e-02 
br_dest\[31\] I *L 0.000e+00 *S 1.691e-02 1.691e-02 
br_dest\[30\] I *L 0.000e+00 *S 1.691e-02 1.691e-02 
br_dest\[29\] I *L 0.000e+00 *S 1.635e-02 1.635e-02 
br_dest\[28\] I *L 0.000e+00 *S 1.662e-02 1.662e-02 
br_dest\[27\] I *L 0.000e+00 *S 1.691e-02 1.691e-02 
br_dest\[26\] I *L 0.000e+00 *S 1.635e-02 1.635e-02 
br_dest\[25\] I *L 0.000e+00 *S 1.635e-02 1.635e-02 
br_dest\[24\] I *L 0.000e+00 *S 1.662e-02 1.662e-02 
br_dest\[23\] I *L 0.000e+00 *S 1.691e-02 1.691e-02 
br_dest\[22\] I *L 0.000e+00 *S 1.635e-02 1.635e-02 
br_dest\[21\] I *L 0.000e+00 *S 1.635e-02 1.635e-02 
br_dest\[20\] I *L 0.000e+00 *S 1.662e-02 1.662e-02 
br_dest\[19\] I *L 0.000e+00 *S 1.691e-02 1.691e-02 
br_dest\[18\] I *L 0.000e+00 *S 1.635e-02 1.635e-02 
br_dest\[17\] I *L 0.000e+00 *S 1.635e-02 1.635e-02 
br_dest\[16\] I *L 0.000e+00 *S 1.662e-02 1.662e-02 
br_dest\[15\] I *L 0.000e+00 *S 1.691e-02 1.691e-02 
br_dest\[14\] I *L 0.000e+00 *S 1.635e-02 1.635e-02 
br_dest\[13\] I *L 0.000e+00 *S 1.635e-02 1.635e-02 
br_dest\[12\] I *L 0.000e+00 *S 1.662e-02 1.662e-02 
br_dest\[11\] I *L 0.000e+00 *S 1.691e-02 1.691e-02 
br_dest\[10\] I *L 0.000e+00 *S 1.635e-02 1.635e-02 
br_dest\[9\] I *L 0.000e+00 *S 1.635e-02 1.635e-02 
br_dest\[8\] I *L 0.000e+00 *S 1.662e-02 1.662e-02 
br_dest\[7\] I *L 0.000e+00 *S 1.691e-02 1.691e-02 
br_dest\[6\] I *L 0.000e+00 *S 1.635e-02 1.635e-02 
br_dest\[5\] I *L 0.000e+00 *S 1.635e-02 1.635e-02 
br_dest\[4\] I *L 0.000e+00 *S 1.662e-02 1.662e-02 
br_dest\[3\] I *L 0.000e+00 *S 1.635e-02 1.635e-02 
br_dest\[2\] I *L 0.000e+00 *S 1.635e-02 1.635e-02 
br_dest\[1\] I *L 0.000e+00 *S 1.677e-02 1.677e-02 
br_dest\[0\] I *L 0.000e+00 *S 1.677e-02 1.677e-02 
pc_o\[31\] O *L 2.469e+01 *S 1.923e-01 7.891e-02 
pc_o\[30\] O *L 2.469e+01 *S 1.923e-01 7.891e-02 
pc_o\[29\] O *L 2.469e+01 *S 1.923e-01 7.891e-02 
pc_o\[28\] O *L 2.469e+01 *S 1.923e-01 7.891e-02 
pc_o\[27\] O *L 2.469e+01 *S 1.923e-01 7.891e-02 
pc_o\[26\] O *L 2.469e+01 *S 1.923e-01 7.891e-02 
pc_o\[25\] O *L 2.469e+01 *S 1.923e-01 7.891e-02 
pc_o\[24\] O *L 2.469e+01 *S 1.923e-01 7.891e-02 
pc_o\[23\] O *L 2.469e+01 *S 1.923e-01 7.891e-02 
pc_o\[22\] O *L 2.469e+01 *S 1.923e-01 7.891e-02 
pc_o\[21\] O *L 2.469e+01 *S 1.923e-01 7.891e-02 
pc_o\[20\] O *L 2.469e+01 *S 1.923e-01 7.891e-02 
pc_o\[19\] O *L 2.469e+01 *S 1.923e-01 7.891e-02 
pc_o\[18\] O *L 2.469e+01 *S 1.923e-01 7.891e-02 
pc_o\[17\] O *L 2.469e+01 *S 1.923e-01 7.891e-02 
pc_o\[16\] O *L 2.469e+01 *S 1.923e-01 7.891e-02 
pc_o\[15\] O *L 2.469e+01 *S 1.923e-01 7.891e-02 
pc_o\[14\] O *L 2.469e+01 *S 1.923e-01 7.891e-02 
pc_o\[13\] O *L 2.469e+01 *S 1.923e-01 7.891e-02 
pc_o\[12\] O *L 2.469e+01 *S 1.923e-01 7.891e-02 
pc_o\[11\] O *L 2.469e+01 *S 1.923e-01 7.891e-02 
pc_o\[10\] O *L 2.469e+01 *S 1.923e-01 7.891e-02 
pc_o\[9\] O *L 2.469e+01 *S 1.923e-01 7.891e-02 
pc_o\[8\] O *L 2.469e+01 *S 1.923e-01 7.891e-02 
pc_o\[7\] O *L 2.469e+01 *S 1.923e-01 7.891e-02 
pc_o\[6\] O *L 2.469e+01 *S 1.923e-01 7.891e-02 
pc_o\[5\] O *L 2.469e+01 *S 1.923e-01 7.891e-02 
pc_o\[4\] O *L 2.469e+01 *S 1.923e-01 7.891e-02 
pc_o\[3\] O *L 2.469e+01 *S 1.923e-01 7.891e-02 
pc_o\[2\] O *L 2.469e+01 *S 1.923e-01 7.891e-02 
pc_o\[1\] O *L 2.469e+01 *S 1.923e-01 7.891e-02 
pc_o\[0\] O *L 2.469e+01 *S 1.923e-01 7.891e-02 
inst_o\[31\] O *L 2.469e+01 *S 1.923e-01 7.891e-02 
inst_o\[30\] O *L 2.469e+01 *S 1.923e-01 7.891e-02 
inst_o\[29\] O *L 2.469e+01 *S 1.923e-01 7.891e-02 
inst_o\[28\] O *L 2.469e+01 *S 1.923e-01 7.891e-02 
inst_o\[27\] O *L 2.469e+01 *S 1.923e-01 7.891e-02 
inst_o\[26\] O *L 2.469e+01 *S 1.923e-01 7.891e-02 
inst_o\[25\] O *L 2.469e+01 *S 1.923e-01 7.891e-02 
inst_o\[24\] O *L 2.469e+01 *S 1.923e-01 7.891e-02 
inst_o\[23\] O *L 2.469e+01 *S 1.923e-01 7.891e-02 
inst_o\[22\] O *L 2.469e+01 *S 1.923e-01 7.891e-02 
inst_o\[21\] O *L 2.469e+01 *S 1.923e-01 7.891e-02 
inst_o\[20\] O *L 2.469e+01 *S 1.923e-01 7.891e-02 
inst_o\[19\] O *L 2.469e+01 *S 1.923e-01 7.891e-02 
inst_o\[18\] O *L 2.469e+01 *S 1.923e-01 7.891e-02 
inst_o\[17\] O *L 2.469e+01 *S 1.923e-01 7.891e-02 
inst_o\[16\] O *L 2.469e+01 *S 1.923e-01 7.891e-02 
inst_o\[15\] O *L 2.469e+01 *S 1.923e-01 7.891e-02 
inst_o\[14\] O *L 2.469e+01 *S 1.923e-01 7.891e-02 
inst_o\[13\] O *L 2.469e+01 *S 1.923e-01 7.891e-02 
inst_o\[12\] O *L 2.469e+01 *S 1.923e-01 7.891e-02 
inst_o\[11\] O *L 2.469e+01 *S 1.923e-01 7.891e-02 
inst_o\[10\] O *L 2.469e+01 *S 1.923e-01 7.891e-02 
inst_o\[9\] O *L 2.469e+01 *S 1.923e-01 7.891e-02 
inst_o\[8\] O *L 2.469e+01 *S 1.923e-01 7.891e-02 
inst_o\[7\] O *L 2.469e+01 *S 1.923e-01 7.891e-02 
inst_o\[6\] O *L 2.469e+01 *S 1.923e-01 7.891e-02 
inst_o\[5\] O *L 2.469e+01 *S 1.923e-01 7.891e-02 
inst_o\[4\] O *L 2.469e+01 *S 1.923e-01 7.891e-02 
inst_o\[3\] O *L 2.469e+01 *S 1.923e-01 7.891e-02 
inst_o\[2\] O *L 2.469e+01 *S 1.923e-01 7.891e-02 
inst_o\[1\] O *L 2.469e+01 *S 1.923e-01 7.891e-02 
inst_o\[0\] O *L 2.469e+01 *S 1.923e-01 7.891e-02 
inst_valid_o O *L 2.469e+01 *S 1.923e-01 7.891e-02 
imem_addr_o\[7\] O *L 2.469e+01 *S 2.917e-01 1.080e-01 
imem_addr_o\[6\] O *L 2.469e+01 *S 2.091e-01 8.405e-02 
imem_addr_o\[5\] O *L 2.469e+01 *S 1.923e-01 7.891e-02 
imem_addr_o\[4\] O *L 2.469e+01 *S 2.555e-01 9.776e-02 
imem_addr_o\[3\] O *L 2.469e+01 *S 2.917e-01 1.080e-01 
imem_addr_o\[2\] O *L 2.469e+01 *S 2.094e-01 8.414e-02 
imem_addr_o\[1\] O *L 2.469e+01 *S 2.254e-01 8.901e-02 
imem_addr_o\[0\] O *L 2.469e+01 *S 2.615e-01 9.946e-02 
imem_inst_i\[31\] I *L 0.000e+00 *S 2.804e-02 2.804e-02 
imem_inst_i\[30\] I *L 0.000e+00 *S 2.764e-02 2.764e-02 
imem_inst_i\[29\] I *L 0.000e+00 *S 2.740e-02 2.740e-02 
imem_inst_i\[28\] I *L 0.000e+00 *S 2.715e-02 2.715e-02 
imem_inst_i\[27\] I *L 0.000e+00 *S 2.804e-02 2.804e-02 
imem_inst_i\[26\] I *L 0.000e+00 *S 2.764e-02 2.764e-02 
imem_inst_i\[25\] I *L 0.000e+00 *S 2.740e-02 2.740e-02 
imem_inst_i\[24\] I *L 0.000e+00 *S 2.715e-02 2.715e-02 
imem_inst_i\[23\] I *L 0.000e+00 *S 2.804e-02 2.804e-02 
imem_inst_i\[22\] I *L 0.000e+00 *S 2.764e-02 2.764e-02 
imem_inst_i\[21\] I *L 0.000e+00 *S 2.740e-02 2.740e-02 
imem_inst_i\[20\] I *L 0.000e+00 *S 2.715e-02 2.715e-02 
imem_inst_i\[19\] I *L 0.000e+00 *S 2.804e-02 2.804e-02 
imem_inst_i\[18\] I *L 0.000e+00 *S 2.764e-02 2.764e-02 
imem_inst_i\[17\] I *L 0.000e+00 *S 2.740e-02 2.740e-02 
imem_inst_i\[16\] I *L 0.000e+00 *S 2.715e-02 2.715e-02 
imem_inst_i\[15\] I *L 0.000e+00 *S 2.804e-02 2.804e-02 
imem_inst_i\[14\] I *L 0.000e+00 *S 2.764e-02 2.764e-02 
imem_inst_i\[13\] I *L 0.000e+00 *S 2.740e-02 2.740e-02 
imem_inst_i\[12\] I *L 0.000e+00 *S 2.715e-02 2.715e-02 
imem_inst_i\[11\] I *L 0.000e+00 *S 2.804e-02 2.804e-02 
imem_inst_i\[10\] I *L 0.000e+00 *S 2.764e-02 2.764e-02 
imem_inst_i\[9\] I *L 0.000e+00 *S 2.740e-02 2.740e-02 
imem_inst_i\[8\] I *L 0.000e+00 *S 2.715e-02 2.715e-02 
imem_inst_i\[7\] I *L 0.000e+00 *S 2.804e-02 2.804e-02 
imem_inst_i\[6\] I *L 0.000e+00 *S 2.764e-02 2.764e-02 
imem_inst_i\[5\] I *L 0.000e+00 *S 2.740e-02 2.740e-02 
imem_inst_i\[4\] I *L 0.000e+00 *S 2.715e-02 2.715e-02 
imem_inst_i\[3\] I *L 0.000e+00 *S 2.804e-02 2.804e-02 
imem_inst_i\[2\] I *L 0.000e+00 *S 2.764e-02 2.764e-02 
imem_inst_i\[1\] I *L 0.000e+00 *S 2.740e-02 2.740e-02 
imem_inst_i\[0\] I *L 0.000e+00 *S 2.715e-02 2.715e-02 

*R_NET clk_i 1.711e+02
*DRIVER clk_i
*CELL NULL
*C2_R1_C1 8.555e+01 1.650e+00 8.555e+01 
*LOADS
*RC pc_o_reg_2_:CK 2.940e-02
*RC pc_reg_2_:CK 2.940e-02
*RC pc_reg_11_:CK 2.940e-02
*RC pc_reg_30_:CK 2.940e-02
*RC pc_reg_27_:CK 2.940e-02
*RC pc_reg_29_:CK 2.940e-02
*RC pc_reg_5_:CK 2.940e-02
*RC pc_reg_6_:CK 2.940e-02
*RC pc_reg_9_:CK 2.940e-02
*RC pc_reg_4_:CK 2.940e-02
*RC pc_reg_8_:CK 2.940e-02
*RC pc_reg_3_:CK 2.940e-02
*RC pc_reg_0_:CK 2.940e-02
*RC pc_o_reg_0_:CK 2.940e-02
*RC pc_o_reg_1_:CK 2.940e-02
*RC pc_reg_1_:CK 2.940e-02
*RC pc_o_reg_3_:CK 2.940e-02
*RC pc_o_reg_4_:CK 2.940e-02
*RC pc_o_reg_5_:CK 2.940e-02
*RC pc_o_reg_6_:CK 2.940e-02
*RC pc_o_reg_7_:CK 2.940e-02
*RC pc_reg_7_:CK 2.940e-02
*RC pc_o_reg_8_:CK 2.940e-02
*RC pc_o_reg_9_:CK 2.940e-02
*RC pc_o_reg_10_:CK 2.940e-02
*RC pc_reg_10_:CK 2.940e-02
*RC pc_o_reg_11_:CK 2.940e-02
*RC pc_o_reg_12_:CK 2.940e-02
*RC pc_reg_12_:CK 2.940e-02
*RC pc_o_reg_13_:CK 2.940e-02
*RC pc_reg_13_:CK 2.940e-02
*RC pc_o_reg_14_:CK 2.940e-02
*RC pc_reg_14_:CK 2.940e-02
*RC pc_o_reg_15_:CK 2.940e-02
*RC pc_reg_15_:CK 2.940e-02
*RC pc_o_reg_16_:CK 2.940e-02
*RC pc_reg_16_:CK 2.940e-02
*RC pc_o_reg_17_:CK 2.940e-02
*RC pc_reg_17_:CK 2.940e-02
*RC pc_o_reg_18_:CK 2.940e-02
*RC pc_reg_18_:CK 2.940e-02
*RC pc_o_reg_19_:CK 2.940e-02
*RC pc_reg_19_:CK 2.940e-02
*RC pc_o_reg_20_:CK 2.940e-02
*RC pc_reg_20_:CK 2.940e-02
*RC pc_o_reg_21_:CK 2.940e-02
*RC pc_reg_21_:CK 2.940e-02
*RC pc_o_reg_22_:CK 2.940e-02
*RC pc_reg_22_:CK 2.940e-02
*RC pc_o_reg_23_:CK 2.940e-02
*RC pc_reg_23_:CK 2.940e-02
*RC pc_o_reg_24_:CK 2.940e-02
*RC pc_reg_24_:CK 2.940e-02
*RC pc_o_reg_25_:CK 2.940e-02
*RC pc_reg_25_:CK 2.940e-02
*RC pc_o_reg_26_:CK 2.940e-02
*RC pc_reg_26_:CK 2.940e-02
*RC pc_o_reg_27_:CK 2.940e-02
*RC pc_o_reg_28_:CK 2.940e-02
*RC pc_reg_28_:CK 2.940e-02
*RC pc_o_reg_29_:CK 2.940e-02
*RC pc_o_reg_30_:CK 2.940e-02
*RC pc_o_reg_31_:CK 2.940e-02
*RC pc_reg_31_:CK 2.940e-02
*RC inst_valid_o_reg:CK 2.940e-02
*RC inst_valid_reg_0_:CK 2.940e-02
*RC inst_o_reg_0_:CK 2.940e-02
*RC inst_o_reg_1_:CK 2.940e-02
*RC inst_o_reg_2_:CK 2.940e-02
*RC inst_o_reg_3_:CK 2.940e-02
*RC inst_o_reg_4_:CK 2.940e-02
*RC inst_o_reg_5_:CK 2.940e-02
*RC inst_o_reg_6_:CK 2.940e-02
*RC inst_o_reg_7_:CK 2.940e-02
*RC inst_o_reg_8_:CK 2.940e-02
*RC inst_o_reg_9_:CK 2.940e-02
*RC inst_o_reg_10_:CK 2.940e-02
*RC inst_o_reg_11_:CK 2.940e-02
*RC inst_o_reg_12_:CK 2.940e-02
*RC inst_o_reg_13_:CK 2.940e-02
*RC inst_o_reg_14_:CK 2.940e-02
*RC inst_o_reg_15_:CK 2.940e-02
*RC inst_o_reg_16_:CK 2.940e-02
*RC inst_o_reg_17_:CK 2.940e-02
*RC inst_o_reg_18_:CK 2.940e-02
*RC inst_o_reg_19_:CK 2.940e-02
*RC inst_o_reg_20_:CK 2.940e-02
*RC inst_o_reg_21_:CK 2.940e-02
*RC inst_o_reg_22_:CK 2.940e-02
*RC inst_o_reg_23_:CK 2.940e-02
*RC inst_o_reg_24_:CK 2.940e-02
*RC inst_o_reg_25_:CK 2.940e-02
*RC inst_o_reg_26_:CK 2.940e-02
*RC inst_o_reg_27_:CK 2.940e-02
*RC inst_o_reg_28_:CK 2.940e-02
*RC inst_o_reg_29_:CK 2.940e-02
*RC inst_o_reg_30_:CK 2.940e-02
*RC inst_o_reg_31_:CK 2.940e-02
*END

*R_NET stall_i 5.994e+00
*DRIVER stall_i
*CELL NULL
*C2_R1_C1 2.997e+00 2.308e-02 2.997e+00 
*LOADS
*RC U219:A1 1.587e-02
*RC U220:A2 1.524e-02
*RC U222:A1 1.501e-02
*END

*R_NET pc_sel_i 4.024e+00
*DRIVER pc_sel_i
*CELL NULL
*C2_R1_C1 2.012e+00 1.407e-02 2.012e+00 
*LOADS
*RC U218:A 1.402e-02
*RC U220:A1 1.428e-02
*END

*R_NET br_dest\[31\] 1.954e+00
*DRIVER br_dest\[31\]
*CELL NULL
*C2_R1_C1 9.770e-01 6.236e-03 9.770e-01 
*LOADS
*RC U405:A1 1.218e-02
*END

*R_NET br_dest\[30\] 1.954e+00
*DRIVER br_dest\[30\]
*CELL NULL
*C2_R1_C1 9.770e-01 6.236e-03 9.770e-01 
*LOADS
*RC U401:A1 1.218e-02
*END

*R_NET br_dest\[29\] 1.890e+00
*DRIVER br_dest\[29\]
*CELL NULL
*C2_R1_C1 9.448e-01 6.236e-03 9.448e-01 
*LOADS
*RC U397:B2 1.178e-02
*END

*R_NET br_dest\[28\] 1.921e+00
*DRIVER br_dest\[28\]
*CELL NULL
*C2_R1_C1 9.605e-01 6.236e-03 9.605e-01 
*LOADS
*RC U392:B2 1.198e-02
*END

*R_NET br_dest\[27\] 1.954e+00
*DRIVER br_dest\[27\]
*CELL NULL
*C2_R1_C1 9.770e-01 6.236e-03 9.770e-01 
*LOADS
*RC U388:A1 1.218e-02
*END

*R_NET br_dest\[26\] 1.890e+00
*DRIVER br_dest\[26\]
*CELL NULL
*C2_R1_C1 9.448e-01 6.236e-03 9.448e-01 
*LOADS
*RC U383:B2 1.178e-02
*END

*R_NET br_dest\[25\] 1.890e+00
*DRIVER br_dest\[25\]
*CELL NULL
*C2_R1_C1 9.448e-01 6.236e-03 9.448e-01 
*LOADS
*RC U379:B2 1.178e-02
*END

*R_NET br_dest\[24\] 1.921e+00
*DRIVER br_dest\[24\]
*CELL NULL
*C2_R1_C1 9.605e-01 6.236e-03 9.605e-01 
*LOADS
*RC U374:B2 1.198e-02
*END

*R_NET br_dest\[23\] 1.954e+00
*DRIVER br_dest\[23\]
*CELL NULL
*C2_R1_C1 9.770e-01 6.236e-03 9.770e-01 
*LOADS
*RC U370:A1 1.218e-02
*END

*R_NET br_dest\[22\] 1.890e+00
*DRIVER br_dest\[22\]
*CELL NULL
*C2_R1_C1 9.448e-01 6.236e-03 9.448e-01 
*LOADS
*RC U365:B2 1.178e-02
*END

*R_NET br_dest\[21\] 1.890e+00
*DRIVER br_dest\[21\]
*CELL NULL
*C2_R1_C1 9.448e-01 6.236e-03 9.448e-01 
*LOADS
*RC U361:B2 1.178e-02
*END

*R_NET br_dest\[20\] 1.921e+00
*DRIVER br_dest\[20\]
*CELL NULL
*C2_R1_C1 9.605e-01 6.236e-03 9.605e-01 
*LOADS
*RC U356:B2 1.198e-02
*END

*R_NET br_dest\[19\] 1.954e+00
*DRIVER br_dest\[19\]
*CELL NULL
*C2_R1_C1 9.770e-01 6.236e-03 9.770e-01 
*LOADS
*RC U352:A1 1.218e-02
*END

*R_NET br_dest\[18\] 1.890e+00
*DRIVER br_dest\[18\]
*CELL NULL
*C2_R1_C1 9.448e-01 6.236e-03 9.448e-01 
*LOADS
*RC U347:B2 1.178e-02
*END

*R_NET br_dest\[17\] 1.890e+00
*DRIVER br_dest\[17\]
*CELL NULL
*C2_R1_C1 9.448e-01 6.236e-03 9.448e-01 
*LOADS
*RC U343:B2 1.178e-02
*END

*R_NET br_dest\[16\] 1.921e+00
*DRIVER br_dest\[16\]
*CELL NULL
*C2_R1_C1 9.605e-01 6.236e-03 9.605e-01 
*LOADS
*RC U338:B2 1.198e-02
*END

*R_NET br_dest\[15\] 1.954e+00
*DRIVER br_dest\[15\]
*CELL NULL
*C2_R1_C1 9.770e-01 6.236e-03 9.770e-01 
*LOADS
*RC U334:A1 1.218e-02
*END

*R_NET br_dest\[14\] 1.890e+00
*DRIVER br_dest\[14\]
*CELL NULL
*C2_R1_C1 9.448e-01 6.236e-03 9.448e-01 
*LOADS
*RC U329:B2 1.178e-02
*END

*R_NET br_dest\[13\] 1.890e+00
*DRIVER br_dest\[13\]
*CELL NULL
*C2_R1_C1 9.448e-01 6.236e-03 9.448e-01 
*LOADS
*RC U325:B2 1.178e-02
*END

*R_NET br_dest\[12\] 1.921e+00
*DRIVER br_dest\[12\]
*CELL NULL
*C2_R1_C1 9.605e-01 6.236e-03 9.605e-01 
*LOADS
*RC U320:B2 1.198e-02
*END

*R_NET br_dest\[11\] 1.954e+00
*DRIVER br_dest\[11\]
*CELL NULL
*C2_R1_C1 9.770e-01 6.236e-03 9.770e-01 
*LOADS
*RC U316:A1 1.218e-02
*END

*R_NET br_dest\[10\] 1.890e+00
*DRIVER br_dest\[10\]
*CELL NULL
*C2_R1_C1 9.448e-01 6.236e-03 9.448e-01 
*LOADS
*RC U311:B2 1.178e-02
*END

*R_NET br_dest\[9\] 1.890e+00
*DRIVER br_dest\[9\]
*CELL NULL
*C2_R1_C1 9.448e-01 6.236e-03 9.448e-01 
*LOADS
*RC U307:B2 1.178e-02
*END

*R_NET br_dest\[8\] 1.921e+00
*DRIVER br_dest\[8\]
*CELL NULL
*C2_R1_C1 9.605e-01 6.236e-03 9.605e-01 
*LOADS
*RC U302:B2 1.198e-02
*END

*R_NET br_dest\[7\] 1.954e+00
*DRIVER br_dest\[7\]
*CELL NULL
*C2_R1_C1 9.770e-01 6.236e-03 9.770e-01 
*LOADS
*RC U298:A1 1.218e-02
*END

*R_NET br_dest\[6\] 1.890e+00
*DRIVER br_dest\[6\]
*CELL NULL
*C2_R1_C1 9.448e-01 6.236e-03 9.448e-01 
*LOADS
*RC U293:B2 1.178e-02
*END

*R_NET br_dest\[5\] 1.890e+00
*DRIVER br_dest\[5\]
*CELL NULL
*C2_R1_C1 9.448e-01 6.236e-03 9.448e-01 
*LOADS
*RC U289:B2 1.178e-02
*END

*R_NET br_dest\[4\] 1.921e+00
*DRIVER br_dest\[4\]
*CELL NULL
*C2_R1_C1 9.605e-01 6.236e-03 9.605e-01 
*LOADS
*RC U284:B2 1.198e-02
*END

*R_NET br_dest\[3\] 1.890e+00
*DRIVER br_dest\[3\]
*CELL NULL
*C2_R1_C1 9.448e-01 6.236e-03 9.448e-01 
*LOADS
*RC U280:B2 1.178e-02
*END

*R_NET br_dest\[2\] 1.890e+00
*DRIVER br_dest\[2\]
*CELL NULL
*C2_R1_C1 9.448e-01 6.236e-03 9.448e-01 
*LOADS
*RC U276:B2 1.178e-02
*END

*R_NET br_dest\[1\] 1.937e+00
*DRIVER br_dest\[1\]
*CELL NULL
*C2_R1_C1 9.687e-01 6.236e-03 9.687e-01 
*LOADS
*RC U225:A2 1.208e-02
*END

*R_NET br_dest\[0\] 1.937e+00
*DRIVER br_dest\[0\]
*CELL NULL
*C2_R1_C1 9.687e-01 6.236e-03 9.687e-01 
*LOADS
*RC U224:A2 1.208e-02
*END

*R_NET pc_o\[31\] 2.500e+01
*DRIVER pc_o_reg_31_:Q
*CELL DFF_X1
*C2_R1_C1 1.250e+01 6.236e-03 1.250e+01 
*LOADS
*RC pc_o\[31\] 1.559e-01
*END

*R_NET pc_o\[30\] 2.500e+01
*DRIVER pc_o_reg_30_:Q
*CELL DFF_X1
*C2_R1_C1 1.250e+01 6.236e-03 1.250e+01 
*LOADS
*RC pc_o\[30\] 1.559e-01
*END

*R_NET pc_o\[29\] 2.500e+01
*DRIVER pc_o_reg_29_:Q
*CELL DFF_X1
*C2_R1_C1 1.250e+01 6.236e-03 1.250e+01 
*LOADS
*RC pc_o\[29\] 1.559e-01
*END

*R_NET pc_o\[28\] 2.500e+01
*DRIVER pc_o_reg_28_:Q
*CELL DFF_X1
*C2_R1_C1 1.250e+01 6.236e-03 1.250e+01 
*LOADS
*RC pc_o\[28\] 1.559e-01
*END

*R_NET pc_o\[27\] 2.500e+01
*DRIVER pc_o_reg_27_:Q
*CELL DFF_X1
*C2_R1_C1 1.250e+01 6.236e-03 1.250e+01 
*LOADS
*RC pc_o\[27\] 1.559e-01
*END

*R_NET pc_o\[26\] 2.500e+01
*DRIVER pc_o_reg_26_:Q
*CELL DFF_X1
*C2_R1_C1 1.250e+01 6.236e-03 1.250e+01 
*LOADS
*RC pc_o\[26\] 1.559e-01
*END

*R_NET pc_o\[25\] 2.500e+01
*DRIVER pc_o_reg_25_:Q
*CELL DFF_X1
*C2_R1_C1 1.250e+01 6.236e-03 1.250e+01 
*LOADS
*RC pc_o\[25\] 1.559e-01
*END

*R_NET pc_o\[24\] 2.500e+01
*DRIVER pc_o_reg_24_:Q
*CELL DFF_X1
*C2_R1_C1 1.250e+01 6.236e-03 1.250e+01 
*LOADS
*RC pc_o\[24\] 1.559e-01
*END

*R_NET pc_o\[23\] 2.500e+01
*DRIVER pc_o_reg_23_:Q
*CELL DFF_X1
*C2_R1_C1 1.250e+01 6.236e-03 1.250e+01 
*LOADS
*RC pc_o\[23\] 1.559e-01
*END

*R_NET pc_o\[22\] 2.500e+01
*DRIVER pc_o_reg_22_:Q
*CELL DFF_X1
*C2_R1_C1 1.250e+01 6.236e-03 1.250e+01 
*LOADS
*RC pc_o\[22\] 1.559e-01
*END

*R_NET pc_o\[21\] 2.500e+01
*DRIVER pc_o_reg_21_:Q
*CELL DFF_X1
*C2_R1_C1 1.250e+01 6.236e-03 1.250e+01 
*LOADS
*RC pc_o\[21\] 1.559e-01
*END

*R_NET pc_o\[20\] 2.500e+01
*DRIVER pc_o_reg_20_:Q
*CELL DFF_X1
*C2_R1_C1 1.250e+01 6.236e-03 1.250e+01 
*LOADS
*RC pc_o\[20\] 1.559e-01
*END

*R_NET pc_o\[19\] 2.500e+01
*DRIVER pc_o_reg_19_:Q
*CELL DFF_X1
*C2_R1_C1 1.250e+01 6.236e-03 1.250e+01 
*LOADS
*RC pc_o\[19\] 1.559e-01
*END

*R_NET pc_o\[18\] 2.500e+01
*DRIVER pc_o_reg_18_:Q
*CELL DFF_X1
*C2_R1_C1 1.250e+01 6.236e-03 1.250e+01 
*LOADS
*RC pc_o\[18\] 1.559e-01
*END

*R_NET pc_o\[17\] 2.500e+01
*DRIVER pc_o_reg_17_:Q
*CELL DFF_X1
*C2_R1_C1 1.250e+01 6.236e-03 1.250e+01 
*LOADS
*RC pc_o\[17\] 1.559e-01
*END

*R_NET pc_o\[16\] 2.500e+01
*DRIVER pc_o_reg_16_:Q
*CELL DFF_X1
*C2_R1_C1 1.250e+01 6.236e-03 1.250e+01 
*LOADS
*RC pc_o\[16\] 1.559e-01
*END

*R_NET pc_o\[15\] 2.500e+01
*DRIVER pc_o_reg_15_:Q
*CELL DFF_X1
*C2_R1_C1 1.250e+01 6.236e-03 1.250e+01 
*LOADS
*RC pc_o\[15\] 1.559e-01
*END

*R_NET pc_o\[14\] 2.500e+01
*DRIVER pc_o_reg_14_:Q
*CELL DFF_X1
*C2_R1_C1 1.250e+01 6.236e-03 1.250e+01 
*LOADS
*RC pc_o\[14\] 1.559e-01
*END

*R_NET pc_o\[13\] 2.500e+01
*DRIVER pc_o_reg_13_:Q
*CELL DFF_X1
*C2_R1_C1 1.250e+01 6.236e-03 1.250e+01 
*LOADS
*RC pc_o\[13\] 1.559e-01
*END

*R_NET pc_o\[12\] 2.500e+01
*DRIVER pc_o_reg_12_:Q
*CELL DFF_X1
*C2_R1_C1 1.250e+01 6.236e-03 1.250e+01 
*LOADS
*RC pc_o\[12\] 1.559e-01
*END

*R_NET pc_o\[11\] 2.500e+01
*DRIVER pc_o_reg_11_:Q
*CELL DFF_X1
*C2_R1_C1 1.250e+01 6.236e-03 1.250e+01 
*LOADS
*RC pc_o\[11\] 1.559e-01
*END

*R_NET pc_o\[10\] 2.500e+01
*DRIVER pc_o_reg_10_:Q
*CELL DFF_X1
*C2_R1_C1 1.250e+01 6.236e-03 1.250e+01 
*LOADS
*RC pc_o\[10\] 1.559e-01
*END

*R_NET pc_o\[9\] 2.500e+01
*DRIVER pc_o_reg_9_:Q
*CELL DFF_X1
*C2_R1_C1 1.250e+01 6.236e-03 1.250e+01 
*LOADS
*RC pc_o\[9\] 1.559e-01
*END

*R_NET pc_o\[8\] 2.500e+01
*DRIVER pc_o_reg_8_:Q
*CELL DFF_X1
*C2_R1_C1 1.250e+01 6.236e-03 1.250e+01 
*LOADS
*RC pc_o\[8\] 1.559e-01
*END

*R_NET pc_o\[7\] 2.500e+01
*DRIVER pc_o_reg_7_:Q
*CELL DFF_X1
*C2_R1_C1 1.250e+01 6.236e-03 1.250e+01 
*LOADS
*RC pc_o\[7\] 1.559e-01
*END

*R_NET pc_o\[6\] 2.500e+01
*DRIVER pc_o_reg_6_:Q
*CELL DFF_X1
*C2_R1_C1 1.250e+01 6.236e-03 1.250e+01 
*LOADS
*RC pc_o\[6\] 1.559e-01
*END

*R_NET pc_o\[5\] 2.500e+01
*DRIVER pc_o_reg_5_:Q
*CELL DFF_X1
*C2_R1_C1 1.250e+01 6.236e-03 1.250e+01 
*LOADS
*RC pc_o\[5\] 1.559e-01
*END

*R_NET pc_o\[4\] 2.500e+01
*DRIVER pc_o_reg_4_:Q
*CELL DFF_X1
*C2_R1_C1 1.250e+01 6.236e-03 1.250e+01 
*LOADS
*RC pc_o\[4\] 1.559e-01
*END

*R_NET pc_o\[3\] 2.500e+01
*DRIVER pc_o_reg_3_:Q
*CELL DFF_X1
*C2_R1_C1 1.250e+01 6.236e-03 1.250e+01 
*LOADS
*RC pc_o\[3\] 1.559e-01
*END

*R_NET pc_o\[2\] 2.500e+01
*DRIVER pc_o_reg_2_:Q
*CELL DFF_X1
*C2_R1_C1 1.250e+01 6.236e-03 1.250e+01 
*LOADS
*RC pc_o\[2\] 1.559e-01
*END

*R_NET pc_o\[1\] 2.500e+01
*DRIVER pc_o_reg_1_:Q
*CELL DFF_X1
*C2_R1_C1 1.250e+01 6.236e-03 1.250e+01 
*LOADS
*RC pc_o\[1\] 1.559e-01
*END

*R_NET pc_o\[0\] 2.500e+01
*DRIVER pc_o_reg_0_:Q
*CELL DFF_X1
*C2_R1_C1 1.250e+01 6.236e-03 1.250e+01 
*LOADS
*RC pc_o\[0\] 1.559e-01
*END

*R_NET inst_o\[31\] 2.500e+01
*DRIVER inst_o_reg_31_:Q
*CELL DFF_X1
*C2_R1_C1 1.250e+01 6.236e-03 1.250e+01 
*LOADS
*RC inst_o\[31\] 1.559e-01
*END

*R_NET inst_o\[30\] 2.500e+01
*DRIVER inst_o_reg_30_:Q
*CELL DFF_X1
*C2_R1_C1 1.250e+01 6.236e-03 1.250e+01 
*LOADS
*RC inst_o\[30\] 1.559e-01
*END

*R_NET inst_o\[29\] 2.500e+01
*DRIVER inst_o_reg_29_:Q
*CELL DFF_X1
*C2_R1_C1 1.250e+01 6.236e-03 1.250e+01 
*LOADS
*RC inst_o\[29\] 1.559e-01
*END

*R_NET inst_o\[28\] 2.500e+01
*DRIVER inst_o_reg_28_:Q
*CELL DFF_X1
*C2_R1_C1 1.250e+01 6.236e-03 1.250e+01 
*LOADS
*RC inst_o\[28\] 1.559e-01
*END

*R_NET inst_o\[27\] 2.500e+01
*DRIVER inst_o_reg_27_:Q
*CELL DFF_X1
*C2_R1_C1 1.250e+01 6.236e-03 1.250e+01 
*LOADS
*RC inst_o\[27\] 1.559e-01
*END

*R_NET inst_o\[26\] 2.500e+01
*DRIVER inst_o_reg_26_:Q
*CELL DFF_X1
*C2_R1_C1 1.250e+01 6.236e-03 1.250e+01 
*LOADS
*RC inst_o\[26\] 1.559e-01
*END

*R_NET inst_o\[25\] 2.500e+01
*DRIVER inst_o_reg_25_:Q
*CELL DFF_X1
*C2_R1_C1 1.250e+01 6.236e-03 1.250e+01 
*LOADS
*RC inst_o\[25\] 1.559e-01
*END

*R_NET inst_o\[24\] 2.500e+01
*DRIVER inst_o_reg_24_:Q
*CELL DFF_X1
*C2_R1_C1 1.250e+01 6.236e-03 1.250e+01 
*LOADS
*RC inst_o\[24\] 1.559e-01
*END

*R_NET inst_o\[23\] 2.500e+01
*DRIVER inst_o_reg_23_:Q
*CELL DFF_X1
*C2_R1_C1 1.250e+01 6.236e-03 1.250e+01 
*LOADS
*RC inst_o\[23\] 1.559e-01
*END

*R_NET inst_o\[22\] 2.500e+01
*DRIVER inst_o_reg_22_:Q
*CELL DFF_X1
*C2_R1_C1 1.250e+01 6.236e-03 1.250e+01 
*LOADS
*RC inst_o\[22\] 1.559e-01
*END

*R_NET inst_o\[21\] 2.500e+01
*DRIVER inst_o_reg_21_:Q
*CELL DFF_X1
*C2_R1_C1 1.250e+01 6.236e-03 1.250e+01 
*LOADS
*RC inst_o\[21\] 1.559e-01
*END

*R_NET inst_o\[20\] 2.500e+01
*DRIVER inst_o_reg_20_:Q
*CELL DFF_X1
*C2_R1_C1 1.250e+01 6.236e-03 1.250e+01 
*LOADS
*RC inst_o\[20\] 1.559e-01
*END

*R_NET inst_o\[19\] 2.500e+01
*DRIVER inst_o_reg_19_:Q
*CELL DFF_X1
*C2_R1_C1 1.250e+01 6.236e-03 1.250e+01 
*LOADS
*RC inst_o\[19\] 1.559e-01
*END

*R_NET inst_o\[18\] 2.500e+01
*DRIVER inst_o_reg_18_:Q
*CELL DFF_X1
*C2_R1_C1 1.250e+01 6.236e-03 1.250e+01 
*LOADS
*RC inst_o\[18\] 1.559e-01
*END

*R_NET inst_o\[17\] 2.500e+01
*DRIVER inst_o_reg_17_:Q
*CELL DFF_X1
*C2_R1_C1 1.250e+01 6.236e-03 1.250e+01 
*LOADS
*RC inst_o\[17\] 1.559e-01
*END

*R_NET inst_o\[16\] 2.500e+01
*DRIVER inst_o_reg_16_:Q
*CELL DFF_X1
*C2_R1_C1 1.250e+01 6.236e-03 1.250e+01 
*LOADS
*RC inst_o\[16\] 1.559e-01
*END

*R_NET inst_o\[15\] 2.500e+01
*DRIVER inst_o_reg_15_:Q
*CELL DFF_X1
*C2_R1_C1 1.250e+01 6.236e-03 1.250e+01 
*LOADS
*RC inst_o\[15\] 1.559e-01
*END

*R_NET inst_o\[14\] 2.500e+01
*DRIVER inst_o_reg_14_:Q
*CELL DFF_X1
*C2_R1_C1 1.250e+01 6.236e-03 1.250e+01 
*LOADS
*RC inst_o\[14\] 1.559e-01
*END

*R_NET inst_o\[13\] 2.500e+01
*DRIVER inst_o_reg_13_:Q
*CELL DFF_X1
*C2_R1_C1 1.250e+01 6.236e-03 1.250e+01 
*LOADS
*RC inst_o\[13\] 1.559e-01
*END

*R_NET inst_o\[12\] 2.500e+01
*DRIVER inst_o_reg_12_:Q
*CELL DFF_X1
*C2_R1_C1 1.250e+01 6.236e-03 1.250e+01 
*LOADS
*RC inst_o\[12\] 1.559e-01
*END

*R_NET inst_o\[11\] 2.500e+01
*DRIVER inst_o_reg_11_:Q
*CELL DFF_X1
*C2_R1_C1 1.250e+01 6.236e-03 1.250e+01 
*LOADS
*RC inst_o\[11\] 1.559e-01
*END

*R_NET inst_o\[10\] 2.500e+01
*DRIVER inst_o_reg_10_:Q
*CELL DFF_X1
*C2_R1_C1 1.250e+01 6.236e-03 1.250e+01 
*LOADS
*RC inst_o\[10\] 1.559e-01
*END

*R_NET inst_o\[9\] 2.500e+01
*DRIVER inst_o_reg_9_:Q
*CELL DFF_X1
*C2_R1_C1 1.250e+01 6.236e-03 1.250e+01 
*LOADS
*RC inst_o\[9\] 1.559e-01
*END

*R_NET inst_o\[8\] 2.500e+01
*DRIVER inst_o_reg_8_:Q
*CELL DFF_X1
*C2_R1_C1 1.250e+01 6.236e-03 1.250e+01 
*LOADS
*RC inst_o\[8\] 1.559e-01
*END

*R_NET inst_o\[7\] 2.500e+01
*DRIVER inst_o_reg_7_:Q
*CELL DFF_X1
*C2_R1_C1 1.250e+01 6.236e-03 1.250e+01 
*LOADS
*RC inst_o\[7\] 1.559e-01
*END

*R_NET inst_o\[6\] 2.500e+01
*DRIVER inst_o_reg_6_:Q
*CELL DFF_X1
*C2_R1_C1 1.250e+01 6.236e-03 1.250e+01 
*LOADS
*RC inst_o\[6\] 1.559e-01
*END

*R_NET inst_o\[5\] 2.500e+01
*DRIVER inst_o_reg_5_:Q
*CELL DFF_X1
*C2_R1_C1 1.250e+01 6.236e-03 1.250e+01 
*LOADS
*RC inst_o\[5\] 1.559e-01
*END

*R_NET inst_o\[4\] 2.500e+01
*DRIVER inst_o_reg_4_:Q
*CELL DFF_X1
*C2_R1_C1 1.250e+01 6.236e-03 1.250e+01 
*LOADS
*RC inst_o\[4\] 1.559e-01
*END

*R_NET inst_o\[3\] 2.500e+01
*DRIVER inst_o_reg_3_:Q
*CELL DFF_X1
*C2_R1_C1 1.250e+01 6.236e-03 1.250e+01 
*LOADS
*RC inst_o\[3\] 1.559e-01
*END

*R_NET inst_o\[2\] 2.500e+01
*DRIVER inst_o_reg_2_:Q
*CELL DFF_X1
*C2_R1_C1 1.250e+01 6.236e-03 1.250e+01 
*LOADS
*RC inst_o\[2\] 1.559e-01
*END

*R_NET inst_o\[1\] 2.500e+01
*DRIVER inst_o_reg_1_:Q
*CELL DFF_X1
*C2_R1_C1 1.250e+01 6.236e-03 1.250e+01 
*LOADS
*RC inst_o\[1\] 1.559e-01
*END

*R_NET inst_o\[0\] 2.500e+01
*DRIVER inst_o_reg_0_:Q
*CELL DFF_X1
*C2_R1_C1 1.250e+01 6.236e-03 1.250e+01 
*LOADS
*RC inst_o\[0\] 1.559e-01
*END

*R_NET inst_valid_o 2.500e+01
*DRIVER inst_valid_o_reg:Q
*CELL DFF_X1
*C2_R1_C1 1.250e+01 6.236e-03 1.250e+01 
*LOADS
*RC inst_valid_o 1.559e-01
*END

*R_NET imem_addr_o\[7\] 3.693e+01
*DRIVER pc_reg_9_:Q
*CELL DFF_X1
*C2_R1_C1 1.846e+01 6.648e-02 1.846e+01 
*LOADS
*RC U217:A2 1.340e-02
*RC U307:A1 2.010e-02
*RC U308:B1 1.984e-02
*RC U309:A3 1.966e-02
*RC U310:C2 1.908e-02
*RC U313:A3 1.966e-02
*RC imem_addr_o\[7\] 2.390e-01
*END

*R_NET imem_addr_o\[6\] 2.704e+01
*DRIVER pc_reg_8_:Q
*CELL DFF_X1
*C2_R1_C1 1.352e+01 1.407e-02 1.352e+01 
*LOADS
*RC U301:A1 1.404e-02
*RC imem_addr_o\[6\] 1.762e-01
*END

*R_NET imem_addr_o\[5\] 2.500e+01
*DRIVER pc_reg_7_:Q
*CELL DFF_X1
*C2_R1_C1 1.250e+01 6.236e-03 1.250e+01 
*LOADS
*RC imem_addr_o\[5\] 1.559e-01
*END

*R_NET imem_addr_o\[4\] 3.261e+01
*DRIVER pc_reg_6_:Q
*CELL DFF_X1
*C2_R1_C1 1.630e+01 4.254e-02 1.630e+01 
*LOADS
*RC U254:A2 1.159e-02
*RC U293:A1 1.759e-02
*RC U294:B1 1.735e-02
*RC U295:A2 1.720e-02
*RC imem_addr_o\[4\] 2.137e-01
*END

*R_NET imem_addr_o\[3\] 3.693e+01
*DRIVER pc_reg_5_:Q
*CELL DFF_X1
*C2_R1_C1 1.846e+01 6.648e-02 1.846e+01 
*LOADS
*RC U216:A2 1.340e-02
*RC U289:A1 2.010e-02
*RC U290:B1 1.984e-02
*RC U291:A3 1.966e-02
*RC U292:C2 1.908e-02
*RC U295:A3 1.966e-02
*RC imem_addr_o\[3\] 2.390e-01
*END

*R_NET imem_addr_o\[2\] 2.707e+01
*DRIVER pc_reg_4_:Q
*CELL DFF_X1
*C2_R1_C1 1.354e+01 1.407e-02 1.354e+01 
*LOADS
*RC U283:A1 1.428e-02
*RC imem_addr_o\[2\] 1.762e-01
*END

*R_NET imem_addr_o\[1\] 2.900e+01
*DRIVER pc_reg_3_:Q
*CELL DFF_X1
*C2_R1_C1 1.450e+01 2.308e-02 1.450e+01 
*LOADS
*RC U279:A2 1.518e-02
*RC U282:A1 1.501e-02
*RC imem_addr_o\[1\] 1.929e-01
*END

*R_NET imem_addr_o\[0\] 3.333e+01
*DRIVER pc_reg_2_:Q
*CELL DFF_X1
*C2_R1_C1 1.666e+01 4.254e-02 1.666e+01 
*LOADS
*RC U276:A1 1.759e-02
*RC U277:B1 1.735e-02
*RC U280:A1 1.759e-02
*RC U282:A2 1.732e-02
*RC imem_addr_o\[0\] 2.137e-01
*END

*R_NET imem_inst_i\[31\] 3.239e+00
*DRIVER imem_inst_i\[31\]
*CELL NULL
*C2_R1_C1 1.620e+00 1.407e-02 1.620e+00 
*LOADS
*RC U232:A1 1.404e-02
*RC U248:A1 8.752e-03
*END

*R_NET imem_inst_i\[30\] 3.194e+00
*DRIVER imem_inst_i\[30\]
*CELL NULL
*C2_R1_C1 1.597e+00 1.407e-02 1.597e+00 
*LOADS
*RC U232:A2 1.372e-02
*RC U247:A1 8.752e-03
*END

*R_NET imem_inst_i\[29\] 3.166e+00
*DRIVER imem_inst_i\[29\]
*CELL NULL
*C2_R1_C1 1.583e+00 1.407e-02 1.583e+00 
*LOADS
*RC U232:A3 1.352e-02
*RC U246:A1 8.752e-03
*END

*R_NET imem_inst_i\[28\] 3.137e+00
*DRIVER imem_inst_i\[28\]
*CELL NULL
*C2_R1_C1 1.568e+00 1.407e-02 1.568e+00 
*LOADS
*RC U232:A4 1.331e-02
*RC U245:A1 8.752e-03
*END

*R_NET imem_inst_i\[27\] 3.239e+00
*DRIVER imem_inst_i\[27\]
*CELL NULL
*C2_R1_C1 1.620e+00 1.407e-02 1.620e+00 
*LOADS
*RC U231:A1 1.404e-02
*RC U244:A1 8.752e-03
*END

*R_NET imem_inst_i\[26\] 3.194e+00
*DRIVER imem_inst_i\[26\]
*CELL NULL
*C2_R1_C1 1.597e+00 1.407e-02 1.597e+00 
*LOADS
*RC U231:A2 1.372e-02
*RC U243:A1 8.752e-03
*END

*R_NET imem_inst_i\[25\] 3.166e+00
*DRIVER imem_inst_i\[25\]
*CELL NULL
*C2_R1_C1 1.583e+00 1.407e-02 1.583e+00 
*LOADS
*RC U231:A3 1.352e-02
*RC U242:A1 8.752e-03
*END

*R_NET imem_inst_i\[24\] 3.137e+00
*DRIVER imem_inst_i\[24\]
*CELL NULL
*C2_R1_C1 1.568e+00 1.407e-02 1.568e+00 
*LOADS
*RC U231:A4 1.331e-02
*RC U241:A1 8.752e-03
*END

*R_NET imem_inst_i\[23\] 3.239e+00
*DRIVER imem_inst_i\[23\]
*CELL NULL
*C2_R1_C1 1.620e+00 1.407e-02 1.620e+00 
*LOADS
*RC U234:A1 1.404e-02
*RC U240:A1 8.752e-03
*END

*R_NET imem_inst_i\[22\] 3.194e+00
*DRIVER imem_inst_i\[22\]
*CELL NULL
*C2_R1_C1 1.597e+00 1.407e-02 1.597e+00 
*LOADS
*RC U234:A2 1.372e-02
*RC U239:A1 8.752e-03
*END

*R_NET imem_inst_i\[21\] 3.166e+00
*DRIVER imem_inst_i\[21\]
*CELL NULL
*C2_R1_C1 1.583e+00 1.407e-02 1.583e+00 
*LOADS
*RC U202:A1 8.752e-03
*RC U234:A3 1.352e-02
*END

*R_NET imem_inst_i\[20\] 3.137e+00
*DRIVER imem_inst_i\[20\]
*CELL NULL
*C2_R1_C1 1.568e+00 1.407e-02 1.568e+00 
*LOADS
*RC U212:A1 8.752e-03
*RC U234:A4 1.331e-02
*END

*R_NET imem_inst_i\[19\] 3.239e+00
*DRIVER imem_inst_i\[19\]
*CELL NULL
*C2_R1_C1 1.620e+00 1.407e-02 1.620e+00 
*LOADS
*RC U203:A1 8.752e-03
*RC U233:A1 1.404e-02
*END

*R_NET imem_inst_i\[18\] 3.194e+00
*DRIVER imem_inst_i\[18\]
*CELL NULL
*C2_R1_C1 1.597e+00 1.407e-02 1.597e+00 
*LOADS
*RC U209:A1 8.752e-03
*RC U233:A2 1.372e-02
*END

*R_NET imem_inst_i\[17\] 3.166e+00
*DRIVER imem_inst_i\[17\]
*CELL NULL
*C2_R1_C1 1.583e+00 1.407e-02 1.583e+00 
*LOADS
*RC U201:A1 8.752e-03
*RC U233:A3 1.352e-02
*END

*R_NET imem_inst_i\[16\] 3.137e+00
*DRIVER imem_inst_i\[16\]
*CELL NULL
*C2_R1_C1 1.568e+00 1.407e-02 1.568e+00 
*LOADS
*RC U215:A1 8.752e-03
*RC U233:A4 1.331e-02
*END

*R_NET imem_inst_i\[15\] 3.239e+00
*DRIVER imem_inst_i\[15\]
*CELL NULL
*C2_R1_C1 1.620e+00 1.407e-02 1.620e+00 
*LOADS
*RC U199:A1 8.752e-03
*RC U227:A1 1.404e-02
*END

*R_NET imem_inst_i\[14\] 3.194e+00
*DRIVER imem_inst_i\[14\]
*CELL NULL
*C2_R1_C1 1.597e+00 1.407e-02 1.597e+00 
*LOADS
*RC U207:A1 8.752e-03
*RC U227:A2 1.372e-02
*END

*R_NET imem_inst_i\[13\] 3.166e+00
*DRIVER imem_inst_i\[13\]
*CELL NULL
*C2_R1_C1 1.583e+00 1.407e-02 1.583e+00 
*LOADS
*RC U200:A1 8.752e-03
*RC U227:A3 1.352e-02
*END

*R_NET imem_inst_i\[12\] 3.137e+00