*SPEF "IEEE 1481-1999"
*DESIGN "toplevel"
*DATE "Wed May 10 15:52:50 2023"
*VENDOR "SYNOPSYS INC"
*PROGRAM "Synopsys Design Compiler"
*VERSION "T-2022.03-SP3"
*DESIGN_FLOW "SYNTHESIS"
*DIVIDER /
*DELIMITER :
*BUS_DELIMITER []
*T_UNIT 1.0 NS
*C_UNIT 0.0001 PF
*R_UNIT 10000.0 KOHM
*L_UNIT 1.0 HENRY

*PORTS

clk I *L 0.000e+00 *S 0.000e+00 0.000e+00 
reset I *L 0.000e+00 *S 0.000e+00 0.000e+00 

*R_NET clk 0.000e+00
*DRIVER clk
*CELL NULL
*C2_R1_C1 0.000e+00 0.000e+00 0.000e+00 
*LOADS
*RC dcache0:clk 0.000e+00
*RC cpu0:clk 0.000e+00
*DRIVER dcache0:clk
*CELL dcache
*C2_R1_C1 0.000e+00 0.000e+00 0.000e+00 
*LOADS
*RC cpu0:clk 0.000e+00
*DRIVER cpu0:clk
*CELL cpu
*C2_R1_C1 0.000e+00 0.000e+00 0.000e+00 
*LOADS
*RC dcache0:clk 0.000e+00
*END

*R_NET reset 0.000e+00
*DRIVER reset
*CELL NULL
*C2_R1_C1 0.000e+00 0.000e+00 0.000e+00 
*LOADS
*RC dcache0:reset 0.000e+00
*RC cpu0:reset 0.000e+00
*DRIVER dcache0:reset
*CELL dcache
*C2_R1_C1 0.000e+00 0.000e+00 0.000e+00 
*LOADS
*RC cpu0:reset 0.000e+00
*DRIVER cpu0:reset
*CELL cpu
*C2_R1_C1 0.000e+00 0.000e+00 0.000e+00 
*LOADS
*RC dcache0:reset 0.000e+00
*END

*R_NET dmem_rdata\[31\] 0.000e+00
*DRIVER dcache0:rdata\[31\]
*CELL dcache
*C2_R1_C1 0.000e+00 0.000e+00 0.000e+00 
*LOADS
*RC cpu0:dmem_rdata\[31\] 0.000e+00
*DRIVER cpu0:dmem_rdata\[31\]
*CELL cpu
*C2_R1_C1 0.000e+00 0.000e+00 0.000e+00 
*LOADS
*RC dcache0:rdata\[31\] 0.000e+00
*END

*R_NET dmem_rdata\[30\] 0.000e+00
*DRIVER dcache0:rdata\[30\]
*CELL dcache
*C2_R1_C1 0.000e+00 0.000e+00 0.000e+00 
*LOADS
*RC cpu0:dmem_rdata\[30\] 0.000e+00
*DRIVER cpu0:dmem_rdata\[30\]
*CELL cpu
*C2_R1_C1 0.000e+00 0.000e+00 0.000e+00 
*LOADS
*RC dcache0:rdata\[30\] 0.000e+00
*END

*R_NET dmem_rdata\[29\] 0.000e+00
*DRIVER dcache0:rdata\[29\]
*CELL dcache
*C2_R1_C1 0.000e+00 0.000e+00 0.000e+00 
*LOADS
*RC cpu0:dmem_rdata\[29\] 0.000e+00
*DRIVER cpu0:dmem_rdata\[29\]
*CELL cpu
*C2_R1_C1 0.000e+00 0.000e+00 0.000e+00 
*LOADS
*RC dcache0:rdata\[29\] 0.000e+00
*END

*R_NET dmem_rdata\[28\] 0.000e+00
*DRIVER dcache0:rdata\[28\]
*CELL dcache
*C2_R1_C1 0.000e+00 0.000e+00 0.000e+00 
*LOADS
*RC cpu0:dmem_rdata\[28\] 0.000e+00
*DRIVER cpu0:dmem_rdata\[28\]
*CELL cpu
*C2_R1_C1 0.000e+00 0.000e+00 0.000e+00 
*LOADS
*RC dcache0:rdata\[28\] 0.000e+00
*END

*R_NET dmem_rdata\[27\] 0.000e+00
*DRIVER dcache0:rdata\[27\]
*CELL dcache
*C2_R1_C1 0.000e+00 0.000e+00 0.000e+00 
*LOADS
*RC cpu0:dmem_rdata\[27\] 0.000e+00
*DRIVER cpu0:dmem_rdata\[27\]
*CELL cpu
*C2_R1_C1 0.000e+00 0.000e+00 0.000e+00 
*LOADS
*RC dcache0:rdata\[27\] 0.000e+00
*END

*R_NET dmem_rdata\[26\] 0.000e+00
*DRIVER dcache0:rdata\[26\]
*CELL dcache
*C2_R1_C1 0.000e+00 0.000e+00 0.000e+00 
*LOADS
*RC cpu0:dmem_rdata\[26\] 0.000e+00
*DRIVER cpu0:dmem_rdata\[26\]
*CELL cpu
*C2_R1_C1 0.000e+00 0.000e+00 0.000e+00 
*LOADS
*RC dcache0:rdata\[26\] 0.000e+00
*END

*R_NET dmem_rdata\[25\] 0.000e+00
*DRIVER dcache0:rdata\[25\]
*CELL dcache
*C2_R1_C1 0.000e+00 0.000e+00 0.000e+00 
*LOADS
*RC cpu0:dmem_rdata\[25\] 0.000e+00
*DRIVER cpu0:dmem_rdata\[25\]
*CELL cpu
*C2_R1_C1 0.000e+00 0.000e+00 0.000e+00 
*LOADS
*RC dcache0:rdata\[25\] 0.000e+00
*END

*R_NET dmem_rdata\[24\] 0.000e+00
*DRIVER dcache0:rdata\[24\]
*CELL dcache
*C2_R1_C1 0.000e+00 0.000e+00 0.000e+00 
*LOADS
*RC cpu0:dmem_rdata\[24\] 0.000e+00
*DRIVER cpu0:dmem_rdata\[24\]
*CELL cpu
*C2_R1_C1 0.000e+00 0.000e+00 0.000e+00 
*LOADS
*RC dcache0:rdata\[24\] 0.000e+00
*END

*R_NET dmem_rdata\[23\] 0.000e+00
*DRIVER dcache0:rdata\[23\]
*CELL dcache
*C2_R1_C1 0.000e+00 0.000e+00 0.000e+00 
*LOADS
*RC cpu0:dmem_rdata\[23\] 0.000e+00
*DRIVER cpu0:dmem_rdata\[23\]
*CELL cpu
*C2_R1_C1 0.000e+00 0.000e+00 0.000e+00 
*LOADS
*RC dcache0:rdata\[23\] 0.000e+00
*END

*R_NET dmem_rdata\[22\] 0.000e+00
*DRIVER dcache0:rdata\[22\]
*CELL dcache
*C2_R1_C1 0.000e+00 0.000e+00 0.000e+00 
*LOADS
*RC cpu0:dmem_rdata\[22\] 0.000e+00
*DRIVER cpu0:dmem_rdata\[22\]
*CELL cpu
*C2_R1_C1 0.000e+00 0.000e+00 0.000e+00 
*LOADS
*RC dcache0:rdata\[22\] 0.000e+00
*END

*R_NET dmem_rdata\[21\] 0.000e+00
*DRIVER dcache0:rdata\[21\]
*CELL dcache
*C2_R1_C1 0.000e+00 0.000e+00 0.000e+00 
*LOADS
*RC cpu0:dmem_rdata\[21\] 0.000e+00
*DRIVER cpu0:dmem_rdata\[21\]
*CELL cpu
*C2_R1_C1 0.000e+00 0.000e+00 0.000e+00 
*LOADS
*RC dcache0:rdata\[21\] 0.000e+00
*END

*R_NET dmem_rdata\[20\] 0.000e+00
*DRIVER dcache0:rdata\[20\]
*CELL dcache
*C2_R1_C1 0.000e+00 0.000e+00 0.000e+00 
*LOADS
*RC cpu0:dmem_rdata\[20\] 0.000e+00
*DRIVER cpu0:dmem_rdata\[20\]
*CELL cpu
*C2_R1_C1 0.000e+00 0.000e+00 0.000e+00 
*LOADS
*RC dcache0:rdata\[20\] 0.000e+00
*END

*R_NET dmem_rdata\[19\] 0.000e+00
*DRIVER dcache0:rdata\[19\]
*CELL dcache
*C2_R1_C1 0.000e+00 0.000e+00 0.000e+00 
*LOADS
*RC cpu0:dmem_rdata\[19\] 0.000e+00
*DRIVER cpu0:dmem_rdata\[19\]
*CELL cpu
*C2_R1_C1 0.000e+00 0.000e+00 0.000e+00 
*LOADS
*RC dcache0:rdata\[19\] 0.000e+00
*END

*R_NET dmem_rdata\[18\] 0.000e+00
*DRIVER dcache0:rdata\[18\]
*CELL dcache
*C2_R1_C1 0.000e+00 0.000e+00 0.000e+00 
*LOADS
*RC cpu0:dmem_rdata\[18\] 0.000e+00
*DRIVER cpu0:dmem_rdata\[18\]
*CELL cpu
*C2_R1_C1 0.000e+00 0.000e+00 0.000e+00 
*LOADS
*RC dcache0:rdata\[18\] 0.000e+00
*END

*R_NET dmem_rdata\[17\] 0.000e+00
*DRIVER dcache0:rdata\[17\]
*CELL dcache
*C2_R1_C1 0.000e+00 0.000e+00 0.000e+00 
*LOADS
*RC cpu0:dmem_rdata\[17\] 0.000e+00
*DRIVER cpu0:dmem_rdata\[17\]
*CELL cpu
*C2_R1_C1 0.000e+00 0.000e+00 0.000e+00 
*LOADS
*RC dcache0:rdata\[17\] 0.000e+00
*END

*R_NET dmem_rdata\[16\] 0.000e+00
*DRIVER dcache0:rdata\[16\]
*CELL dcache
*C2_R1_C1 0.000e+00 0.000e+00 0.000e+00 
*LOADS
*RC cpu0:dmem_rdata\[16\] 0.000e+00
*DRIVER cpu0:dmem_rdata\[16\]
*CELL cpu
*C2_R1_C1 0.000e+00 0.000e+00 0.000e+00 
*LOADS
*RC dcache0:rdata\[16\] 0.000e+00
*END

*R_NET dmem_rdata\[15\] 0.000e+00
*DRIVER dcache0:rdata\[15\]
*CELL dcache
*C2_R1_C1 0.000e+00 0.000e+00 0.000e+00 
*LOADS
*RC cpu0:dmem_rdata\[15\] 0.000e+00
*DRIVER cpu0:dmem_rdata\[15\]
*CELL cpu
*C2_R1_C1 0.000e+00 0.000e+00 0.000e+00 
*LOADS
*RC dcache0:rdata\[15\] 0.000e+00
*END

*R_NET dmem_rdata\[14\] 0.000e+00
*DRIVER dcache0:rdata\[14\]
*CELL dcache
*C2_R1_C1 0.000e+00 0.000e+00 0.000e+00 
*LOADS
*RC cpu0:dmem_rdata\[14\] 0.000e+00
*DRIVER cpu0:dmem_rdata\[14\]
*CELL cpu
*C2_R1_C1 0.000e+00 0.000e+00 0.000e+00 
*LOADS
*RC dcache0:rdata\[14\] 0.000e+00
*END

*R_NET dmem_rdata\[13\] 0.000e+00
*DRIVER dcache0:rdata\[13\]
*CELL dcache
*C2_R1_C1 0.000e+00 0.000e+00 0.000e+00 
*LOADS
*RC cpu0:dmem_rdata\[13\] 0.000e+00
*DRIVER cpu0:dmem_rdata\[13\]
*CELL cpu
*C2_R1_C1 0.000e+00 0.000e+00 0.000e+00 
*LOADS
*RC dcache0:rdata\[13\] 0.000e+00
*END

*R_NET dmem_rdata\[12\] 0.000e+00
*DRIVER dcache0:rdata\[12\]
*CELL dcache
*C2_R1_C1 0.000e+00 0.000e+00 0.000e+00 
*LOADS
*RC cpu0:dmem_rdata\[12\] 0.000e+00
*DRIVER cpu0:dmem_rdata\[12\]
*CELL cpu
*C2_R1_C1 0.000e+00 0.000e+00 0.000e+00 
*LOADS
*RC dcache0:rdata\[12\] 0.000e+00
*END

*R_NET dmem_rdata\[11\] 0.000e+00
*DRIVER dcache0:rdata\[11\]
*CELL dcache
*C2_R1_C1 0.000e+00 0.000e+00 0.000e+00 
*LOADS
*RC cpu0:dmem_rdata\[11\] 0.000e+00
*DRIVER cpu0:dmem_rdata\[11\]
*CELL cpu
*C2_R1_C1 0.000e+00 0.000e+00 0.000e+00 
*LOADS
*RC dcache0:rdata\[11\] 0.000e+00
*END

*R_NET dmem_rdata\[10\] 0.000e+00
*DRIVER dcache0:rdata\[10\]
*CELL dcache
*C2_R1_C1 0.000e+00 0.000e+00 0.000e+00 
*LOADS
*RC cpu0:dmem_rdata\[10\] 0.000e+00
*DRIVER cpu0:dmem_rdata\[10\]
*CELL cpu
*C2_R1_C1 0.000e+00 0.000e+00 0.000e+00 
*LOADS
*RC dcache0:rdata\[10\] 0.000e+00
*END

*R_NET dmem_rdata\[9\] 0.000e+00
*DRIVER dcache0:rdata\[9\]
*CELL dcache
*C2_R1_C1 0.000e+00 0.000e+00 0.000e+00 
*LOADS
*RC cpu0:dmem_rdata\[9\] 0.000e+00
*DRIVER cpu0:dmem_rdata\[9\]
*CELL cpu
*C2_R1_C1 0.000e+00 0.000e+00 0.000e+00 
*LOADS
*RC dcache0:rdata\[9\] 0.000e+00
*END

*R_NET dmem_rdata\[8\] 0.000e+00
*DRIVER dcache0:rdata\[8\]
*CELL dcache
*C2_R1_C1 0.000e+00 0.000e+00 0.000e+00 
*LOADS
*RC cpu0:dmem_rdata\[8\] 0.000e+00
*DRIVER cpu0:dmem_rdata\[8\]
*CELL cpu
*C2_R1_C1 0.000e+00 0.000e+00 0.000e+00 
*LOADS
*RC dcache0:rdata\[8\] 0.000e+00
*END

*R_NET dmem_rdata\[7\] 0.000e+00
*DRIVER dcache0:rdata\[7\]
*CELL dcache
*C2_R1_C1 0.000e+00 0.000e+00 0.000e+00 
*LOADS
*RC cpu0:dmem_rdata\[7\] 0.000e+00
*DRIVER cpu0:dmem_rdata\[7\]
*CELL cpu
*C2_R1_C1 0.000e+00 0.000e+00 0.000e+00 
*LOADS
*RC dcache0:rdata\[7\] 0.000e+00
*END

*R_NET dmem_rdata\[6\] 0.000e+00
*DRIVER dcache0:rdata\[6\]
*CELL dcache
*C2_R1_C1 0.000e+00 0.000e+00 0.000e+00 
*LOADS
*RC cpu0:dmem_rdata\[6\] 0.000e+00
*DRIVER cpu0:dmem_rdata\[6\]
*CELL cpu
*C2_R1_C1 0.000e+00 0.000e+00 0.000e+00 
*LOADS
*RC dcache0:rdata\[6\] 0.000e+00
*END

*R_NET dmem_rdata\[5\] 0.000e+00
*DRIVER dcache0:rdata\[5\]
*CELL dcache
*C2_R1_C1 0.000e+00 0.000e+00 0.000e+00 
*LOADS
*RC cpu0:dmem_rdata\[5\] 0.000e+00
*DRIVER cpu0:dmem_rdata\[5\]
*CELL cpu
*C2_R1_C1 0.000e+00 0.000e+00 0.000e+00 
*LOADS
*RC dcache0:rdata\[5\] 0.000e+00
*END

*R_NET dmem_rdata\[4\] 0.000e+00
*DRIVER dcache0:rdata\[4\]
*CELL dcache
*C2_R1_C1 0.000e+00 0.000e+00 0.000e+00 
*LOADS
*RC cpu0:dmem_rdata\[4\] 0.000e+00
*DRIVER cpu0:dmem_rdata\[4\]
*CELL cpu
*C2_R1_C1 0.000e+00 0.000e+00 0.000e+00 
*LOADS
*RC dcache0:rdata\[4\] 0.000e+00
*END

*R_NET dmem_rdata\[3\] 0.000e+00
*DRIVER dcache0:rdata\[3\]
*CELL dcache
*C2_R1_C1 0.000e+00 0.000e+00 0.000e+00 
*LOADS
*RC cpu0:dmem_rdata\[3\] 0.000e+00
*DRIVER cpu0:dmem_rdata\[3\]
*CELL cpu
*C2_R1_C1 0.000e+00 0.000e+00 0.000e+00 
*LOADS
*RC dcache0:rdata\[3\] 0.000e+00
*END

*R_NET dmem_rdata\[2\] 0.000e+00
*DRIVER dcache0:rdata\[2\]
*CELL dcache
*C2_R1_C1 0.000e+00 0.000e+00 0.000e+00 
*LOADS
*RC cpu0:dmem_rdata\[2\] 0.000e+00
*DRIVER cpu0:dmem_rdata\[2\]
*CELL cpu
*C2_R1_C1 0.000e+00 0.000e+00 0.000e+00 
*LOADS
*RC dcache0:rdata\[2\] 0.000e+00
*END

*R_NET dmem_rdata\[1\] 0.000e+00
*DRIVER dcache0:rdata\[1\]
*CELL dcache
*C2_R1_C1 0.000e+00 0.000e+00 0.000e+00 
*LOADS
*RC cpu0:dmem_rdata\[1\] 0.000e+00
*DRIVER cpu0:dmem_rdata\[1\]
*CELL cpu
*C2_R1_C1 0.000e+00 0.000e+00 0.000e+00 
*LOADS
*RC dcache0:rdata\[1\] 0.000e+00
*END

*R_NET dmem_rdata\[0\] 0.000e+00
*DRIVER dcache0:rdata\[0\]
*CELL dcache
*C2_R1_C1 0.000e+00 0.000e+00 0.000e+00 
*LOADS
*RC cpu0:dmem_rdata\[0\] 0.000e+00
*DRIVER cpu0:dmem_rdata\[0\]
*CELL cpu
*C2_R1_C1 0.000e+00 0.000e+00 0.000e+00 
*LOADS
*RC dcache0:rdata\[0\] 0.000e+00
*END

*R_NET dmem_w_en 0.000e+00
*DRIVER dcache0:w_en
*CELL dcache
*C2_R1_C1 0.000e+00 0.000e+00 0.000e+00 
*LOADS
*RC cpu0:dmem_w_en 0.000e+00
*DRIVER cpu0:dmem_w_en
*CELL cpu
*C2_R1_C1 0.000e+00 0.000e+00 0.000e+00 
*LOADS
*RC dcache0:w_en 0.000e+00
*END

*R_NET dmem_wdata\[31\] 0.000e+00
*DRIVER dcache0:wdata\[31\]
*CELL dcache
*C2_R1_C1 0.000e+00 0.000e+00 0.000e+00 
*LOADS
*RC cpu0:dmem_wdata\[31\] 0.000e+00
*DRIVER cpu0:dmem_wdata\[31\]
*CELL cpu
*C2_R1_C1 0.000e+00 0.000e+00 0.000e+00 
*LOADS
*RC dcache0:wdata\[31\] 0.000e+00
*END

*R_NET dmem_wdata\[30\] 0.000e+00
*DRIVER dcache0:wdata\[30\]
*CELL dcache
*C2_R1_C1 0.000e+00 0.000e+00 0.000e+00 
*LOADS
*RC cpu0:dmem_wdata\[30\] 0.000e+00
*DRIVER cpu0:dmem_wdata\[30\]
*CELL cpu
*C2_R1_C1 0.000e+00 0.000e+00 0.000e+00 
*LOADS
*RC dcache0:wdata\[30\] 0.000e+00
*END

*R_NET dmem_wdata\[29\] 0.000e+00
*DRIVER dcache0:wdata\[29\]
*CELL dcache
*C2_R1_C1 0.000e+00 0.000e+00 0.000e+00 
*LOADS
*RC cpu0:dmem_wdata\[29\] 0.000e+00
*DRIVER cpu0:dmem_wdata\[29\]
*CELL cpu
*C2_R1_C1 0.000e+00 0.000e+00 0.000e+00 
*LOADS
*RC dcache0:wdata\[29\] 0.000e+00
*END

*R_NET dmem_wdata\[28\] 0.000e+00
*DRIVER dcache0:wdata\[28\]
*CELL dcache
*C2_R1_C1 0.000e+00 0.000e+00 0.000e+00 
*LOADS
*RC cpu0:dmem_wdata\[28\] 0.000e+00
*DRIVER cpu0:dmem_wdata\[28\]
*CELL cpu
*C2_R1_C1 0.000e+00 0.000e+00 0.000e+00 
*LOADS
*RC dcache0:wdata\[28\] 0.000e+00
*END

*R_NET dmem_wdata\[27\] 0.000e+00
*DRIVER dcache0:wdata\[27\]
*CELL dcache
*C2_R1_C1 0.000e+00 0.000e+00 0.000e+00 
*LOADS
*RC cpu0:dmem_wdata\[27\] 0.000e+00
*DRIVER cpu0:dmem_wdata\[27\]
*CELL cpu
*C2_R1_C1 0.000e+00 0.000e+00 0.000e+00 
*LOADS
*RC dcache0:wdata\[27\] 0.000e+00
*END

*R_NET dmem_wdata\[26\] 0.000e+00
*DRIVER dcache0:wdata\[26\]
*CELL dcache
*C2_R1_C1 0.000e+00 0.000e+00 0.000e+00 
*LOADS
*RC cpu0:dmem_wdata\[26\] 0.000e+00
*DRIVER cpu0:dmem_wdata\[26\]
*CELL cpu
*C2_R1_C1 0.000e+00 0.000e+00 0.000e+00 
*LOADS
*RC dcache0:wdata\[26\] 0.000e+00
*END

*R_NET dmem_wdata\[25\] 0.000e+00
*DRIVER dcache0:wdata\[25\]
*CELL dcache
*C2_R1_C1 0.000e+00 0.000e+00 0.000e+00 
*LOADS
*RC cpu0:dmem_wdata\[25\] 0.000e+00
*DRIVER cpu0:dmem_wdata\[25\]
*CELL cpu
*C2_R1_C1 0.000e+00 0.000e+00 0.000e+00 
*LOADS
*RC dcache0:wdata\[25\] 0.000e+00
*END

*R_NET dmem_wdata\[24\] 0.000e+00
*DRIVER dcache0:wdata\[24\]
*CELL dcache
*C2_R1_C1 0.000e+00 0.000e+00 0.000e+00 
*LOADS
*RC cpu0:dmem_wdata\[24\] 0.000e+00
*DRIVER cpu0:dmem_wdata\[24\]
*CELL cpu
*C2_R1_C1 0.000e+00 0.000e+00 0.000e+00 
*LOADS
*RC dcache0:wdata\[24\] 0.000e+00
*END

*R_NET dmem_wdata\[23\] 0.000e+00
*DRIVER dcache0:wdata\[23\]
*CELL dcache
*C2_R1_C1 0.000e+00 0.000e+00 0.000e+00 
*LOADS
*RC cpu0:dmem_wdata\[23\] 0.000e+00
*DRIVER cpu0:dmem_wdata\[23\]
*CELL cpu
*C2_R1_C1 0.000e+00 0.000e+00 0.000e+00 
*LOADS
*RC dcache0:wdata\[23\] 0.000e+00
*END

*R_NET dmem_wdata\[22\] 0.000e+00
*DRIVER dcache0:wdata\[22\]
*CELL dcache
*C2_R1_C1 0.000e+00 0.000e+00 0.000e+00 
*LOADS
*RC cpu0:dmem_wdata\[22\] 0.000e+00
*DRIVER cpu0:dmem_wdata\[22\]
*CELL cpu
*C2_R1_C1 0.000e+00 0.000e+00 0.000e+00 
*LOADS
*RC dcache0:wdata\[22\] 0.000e+00
*END

*R_NET dmem_wdata\[21\] 0.000e+00
*DRIVER dcache0:wdata\[21\]
*CELL dcache
*C2_R1_C1 0.000e+00 0.000e+00 0.000e+00 
*LOADS
*RC cpu0:dmem_wdata\[21\] 0.000e+00
*DRIVER cpu0:dmem_wdata\[21\]
*CELL cpu
*C2_R1_C1 0.000e+00 0.000e+00 0.000e+00 
*LOADS
*RC dcache0:wdata\[21\] 0.000e+00
*END

*R_NET dmem_wdata\[20\] 0.000e+00
*DRIVER dcache0:wdata\[20\]
*CELL dcache
*C2_R1_C1 0.000e+00 0.000e+00 0.000e+00 
*LOADS
*RC cpu0:dmem_wdata\[20\] 0.000e+00
*DRIVER cpu0:dmem_wdata\[20\]
*CELL cpu
*C2_R1_C1 0.000e+00 0.000e+00 0.000e+00 
*LOADS
*RC dcache0:wdata\[20\] 0.000e+00
*END

*R_NET dmem_wdata\[19\] 0.000e+00
*DRIVER dcache0:wdata\[19\]
*CELL dcache
*C2_R1_C1 0.000e+00 0.000e+00 0.000e+00 
*LOADS
*RC cpu0:dmem_wdata\[19\] 0.000e+00
*DRIVER cpu0:dmem_wdata\[19\]
*CELL cpu
*C2_R1_C1 0.000e+00 0.000e+00 0.000e+00 
*LOADS
*RC dcache0:wdata\[19\] 0.000e+00
*END

*R_NET dmem_wdata\[18\] 0.000e+00
*DRIVER dcache0:wdata\[18\]
*CELL dcache
*C2_R1_C1 0.000e+00 0.000e+00 0.000e+00 
*LOADS
*RC cpu0:dmem_wdata\[18\] 0.000e+00
*DRIVER cpu0:dmem_wdata\[18\]
*CELL cpu
*C2_R1_C1 0.000e+00 0.000e+00 0.000e+00 
*LOADS
*RC dcache0:wdata\[18\] 0.000e+00
*END

*R_NET dmem_wdata\[17\] 0.000e+00
*DRIVER dcache0:wdata\[17\]
*CELL dcache
*C2_R1_C1 0.000e+00 0.000e+00 0.000e+00 
*LOADS
*RC cpu0:dmem_wdata\[17\] 0.000e+00
*DRIVER cpu0:dmem_wdata\[17\]
*CELL cpu
*C2_R1_C1 0.000e+00 0.000e+00 0.000e+00 
*LOADS
*RC dcache0:wdata\[17\] 0.000e+00
*END

*R_NET dmem_wdata\[16\] 0.000e+00
*DRIVER dcache0:wdata\[16\]
*CELL dcache
*C2_R1_C1 0.000e+00 0.000e+00 0.000e+00 
*LOADS
*RC cpu0:dmem_wdata\[16\] 0.000e+00
*DRIVER cpu0:dmem_wdata\[16\]
*CELL cpu
*C2_R1_C1 0.000e+00 0.000e+00 0.000e+00 
*LOADS
*RC dcache0:wdata\[16\] 0.000e+00
*END

*R_NET dmem_wdata\[15\] 0.000e+00
*DRIVER dcache0:wdata\[15\]
*CELL dcache
*C2_R1_C1 0.000e+00 0.000e+00 0.000e+00 
*LOADS
*RC cpu0:dmem_wdata\[15\] 0.000e+00
*DRIVER cpu0:dmem_wdata\[15\]
*CELL cpu
*C2_R1_C1 0.000e+00 0.000e+00 0.000e+00 
*LOADS
*RC dcache0:wdata\[15\] 0.000e+00
*END

*R_NET dmem_wdata\[14\] 0.000e+00
*DRIVER dcache0:wdata\[14\]
*CELL dcache
*C2_R1_C1 0.000e+00 0.000e+00 0.000e+00 
*LOADS
*RC cpu0:dmem_wdata\[14\] 0.000e+00
*DRIVER cpu0:dmem_wdata\[14\]
*CELL cpu
*C2_R1_C1 0.000e+00 0.000e+00 0.000e+00 
*LOADS
*RC dcache0:wdata\[14\] 0.000e+00
*END

*R_NET dmem_wdata\[13\] 0.000e+00
*DRIVER dcache0:wdata\[13\]
*CELL dcache
*C2_R1_C1 0.000e+00 0.000e+00 0.000e+00 
*LOADS
*RC cpu0:dmem_wdata\[13\] 0.000e+00
*DRIVER cpu0:dmem_wdata\[13\]
*CELL cpu
*C2_R1_C1 0.000e+00 0.000e+00 0.000e+00 
*LOADS
*RC dcache0:wdata\[13\] 0.000e+00
*END

*R_NET dmem_wdata\[12\] 0.000e+00
*DRIVER dcache0:wdata\[12\]
*CELL dcache
*C2_R1_C1 0.000e+00 0.000e+00 0.000e+00 
*LOADS
*RC cpu0:dmem_wdata\[12\] 0.000e+00
*DRIVER cpu0:dmem_wdata\[12\]
*CELL cpu
*C2_R1_C1 0.000e+00 0.000e+00 0.000e+00 
*LOADS
*RC dcache0:wdata\[12\] 0.000e+00
*END

*R_NET dmem_wdata\[11\] 0.000e+00
*DRIVER dcache0:wdata\[11\]
*CELL dcache
*C2_R1_C1 0.000e+00 0.000e+00 0.000e+00 
*LOADS
*RC cpu0:dmem_wdata\[11\] 0.000e+00
*DRIVER cpu0:dmem_wdata\[11\]
*CELL cpu
*C2_R1_C1 0.000e+00 0.000e+00 0.000e+00 
*LOADS
*RC dcache0:wdata\[11\] 0.000e+00
*END

*R_NET dmem_wdata\[10\] 0.000e+00
*DRIVER dcache0:wdata\[10\]
*CELL dcache
*C2_R1_C1 0.000e+00 0.000e+00 0.000e+00 
*LOADS
*RC cpu0:dmem_wdata\[10\] 0.000e+00
*DRIVER cpu0:dmem_wdata\[10\]
*CELL cpu
*C2_R1_C1 0.000e+00 0.000e+00 0.000e+00 
*LOADS
*RC dcache0:wdata\[10\] 0.000e+00
*END

*R_NET dmem_wdata\[9\] 0.000e+00
*DRIVER dcache0:wdata\[9\]
*CELL dcache
*C2_R1_C1 0.000e+00 0.000e+00 0.000e+00 
*LOADS
*RC cpu0:dmem_wdata\[9\] 0.000e+00
*DRIVER cpu0:dmem_wdata\[9\]
*CELL cpu
*C2_R1_C1 0.000e+00 0.000e+00 0.000e+00 
*LOADS
*RC dcache0:wdata\[9\] 0.000e+00
*END

*R_NET dmem_wdata\[8\] 0.000e+00
*DRIVER dcache0:wdata\[8\]
*CELL dcache
*C2_R1_C1 0.000e+00 0.000e+00 0.000e+00 
*LOADS
*RC cpu0:dmem_wdata\[8\] 0.000e+00
*DRIVER cpu0:dmem_wdata\[8\]
*CELL cpu
*C2_R1_C1 0.000e+00 0.000e+00 0.000e+00 
*LOADS
*RC dcache0:wdata\[8\] 0.000e+00
*END

*R_NET dmem_wdata\[7\] 0.000e+00
*DRIVER dcache0:wdata\[7\]
*CELL dcache
*C2_R1_C1 0.000e+00 0.000e+00 0.000e+00 
*LOADS
*RC cpu0:dmem_wdata\[7\] 0.000e+00
*DRIVER cpu0:dmem_wdata\[7\]
*CELL cpu
*C2_R1_C1 0.000e+00 0.000e+00 0.000e+00 
*LOADS
*RC dcache0:wdata\[7\] 0.000e+00
*END

*R_NET dmem_wdata\[6\] 0.000e+00
*DRIVER dcache0:wdata\[6\]
*CELL dcache
*C2_R1_C1 0.000e+00 0.000e+00 0.000e+00 
*LOADS
*RC cpu0:dmem_wdata\[6\] 0.000e+00
*DRIVER cpu0:dmem_wdata\[6\]
*CELL cpu
*C2_R1_C1 0.000e+00 0.000e+00 0.000e+00 
*LOADS
*RC dcache0:wdata\[6\] 0.000e+00
*END

*R_NET dmem_wdata\[5\] 0.000e+00
*DRIVER dcache0:wdata\[5\]
*CELL dcache
*C2_R1_C1 0.000e+00 0.000e+00 0.000e+00 
*LOADS
*RC cpu0:dmem_wdata\[5\] 0.000e+00
*DRIVER cpu0:dmem_wdata\[5\]
*CELL cpu
*C2_R1_C1 0.000e+00 0.000e+00 0.000e+00 
*LOADS
*RC dcache0:wdata\[5\] 0.000e+00
*END

*R_NET dmem_wdata\[4\] 0.000e+00
*DRIVER dcache0:wdata\[4\]
*CELL dcache
*C2_R1_C1 0.000e+00 0.000e+00 0.000e+00 
*LOADS
*RC cpu0:dmem_wdata\[4\] 0.000e+00
*DRIVER cpu0:dmem_wdata\[4\]
*CELL cpu
*C2_R1_C1 0.000e+00 0.000e+00 0.000e+00 
*LOADS
*RC dcache0:wdata\[4\] 0.000e+00
*END

*R_NET dmem_wdata\[3\] 0.000e+00
*DRIVER dcache0:wdata\[3\]
*CELL dcache
*C2_R1_C1 0.000e+00 0.000e+00 0.000e+00 
*LOADS
*RC cpu0:dmem_wdata\[3\] 0.000e+00
*DRIVER cpu0:dmem_wdata\[3\]
*CELL cpu
*C2_R1_C1 0.000e+00 0.000e+00 0.000e+00 
*LOADS
*RC dcache0:wdata\[3\] 0.000e+00
*END

*R_NET dmem_wdata\[2\] 0.000e+00
*DRIVER dcache0:wdata\[2\]
*CELL dcache
*C2_R1_C1 0.000e+00 0.000e+00 0.000e+00 
*LOADS
*RC cpu0:dmem_wdata\[2\] 0.000e+00
*DRIVER cpu0:dmem_wdata\[2\]
*CELL cpu
*C2_R1_C1 0.000e+00 0.000e+00 0.000e+00 
*LOADS
*RC dcache0:wdata\[2\] 0.000e+00
*END

*R_NET dmem_wdata\[1\] 0.000e+00
*DRIVER dcache0:wdata\[1\]
*CELL dcache
*C2_R1_C1 0.000e+00 0.000e+00 0.000e+00 
*LOADS
*RC cpu0:dmem_wdata\[1\] 0.000e+00
*DRIVER cpu0:dmem_wdata\[1\]
*CELL cpu
*C2_R1_C1 0.000e+00 0.000e+00 0.000e+00 
*LOADS
*RC dcache0:wdata\[1\] 0.000e+00
*END

*R_NET dmem_wdata\[0\] 0.000e+00
*DRIVER dcache0:wdata\[0\]
*CELL dcache
*C2_R1_C1 0.000e+00 0.000e+00 0.000e+00 
*LOADS
*RC cpu0:dmem_wdata\[0\] 0.000e+00
*DRIVER cpu0:dmem_wdata\[0\]
*CELL cpu
*C2_R1_C1 0.000e+00 0.000e+00 0.000e+00 
*LOADS
*RC dcache0:wdata\[0\] 0.000e+00
*END

*R_NET dmem_addr\[5\] 0.000e+00
*DRIVER dcache0:waddr\[5\]
*CELL dcache
*C2_R1_C1 0.000e+00 0.000e+00 0.000e+00 
*LOADS
*RC dcache0:raddr\[5\] 0.000e+00
*RC cpu0:dmem_addr\[5\] 0.000e+00
*DRIVER dcache0:raddr\[5\]
*CELL dcache
*C2_R1_C1 0.000e+00 0.000e+00 0.000e+00 
*LOADS
*RC dcache0:waddr\[5\] 0.000e+00
*RC cpu0:dmem_addr\[5\] 0.000e+00
*DRIVER cpu0:dmem_addr\[5\]
*CELL cpu
*C2_R1_C1 0.000e+00 0.000e+00 0.000e+00 
*LOADS
*RC dcache0:waddr\[5\] 0.000e+00
*RC dcache0:raddr\[5\] 0.000e+00
*END

*R_NET dmem_addr\[4\] 0.000e+00
*DRIVER dcache0:waddr\[4\]
*CELL dcache
*C2_R1_C1 0.000e+00 0.000e+00 0.000e+00 
*LOADS
*RC dcache0:raddr\[4\] 0.000e+00
*RC cpu0:dmem_addr\[4\] 0.000e+00
*DRIVER dcache0:raddr\[4\]
*CELL dcache
*C2_R1_C1 0.000e+00 0.000e+00 0.000e+00 
*LOADS
*RC dcache0:waddr\[4\] 0.000e+00
*RC cpu0:dmem_addr\[4\] 0.000e+00
*DRIVER cpu0:dmem_addr\[4\]
*CELL cpu
*C2_R1_C1 0.000e+00 0.000e+00 0.000e+00 
*LOADS
*RC dcache0:waddr\[4\] 0.000e+00
*RC dcache0:raddr\[4\] 0.000e+00
*END

*R_NET dmem_addr\[3\] 0.000e+00
*DRIVER dcache0:waddr\[3\]
*CELL dcache
*C2_R1_C1 0.000e+00 0.000e+00 0.000e+00 
*LOADS
*RC dcache0:raddr\[3\] 0.000e+00
*RC cpu0:dmem_addr\[3\] 0.000e+00
*DRIVER dcache0:raddr\[3\]
*CELL dcache
*C2_R1_C1 0.000e+00 0.000e+00 0.000e+00 
*LOADS
*RC dcache0:waddr\[3\] 0.000e+00
*RC cpu0:dmem_addr\[3\] 0.000e+00
*DRIVER cpu0:dmem_addr\[3\]
*CELL cpu
*C2_R1_C1 0.000e+00 0.000e+00 0.000e+00 
*LOADS
*RC dcache0:waddr\[3\] 0.000e+00
*RC dcache0:raddr\[3\] 0.000e+00
*END

*R_NET dmem_addr\[2\] 0.000e+00
*DRIVER dcache0:waddr\[2\]
*CELL dcache
*C2_R1_C1 0.000e+00 0.000e+00 0.000e+00 
*LOADS
*RC dcache0:raddr\[2\] 0.000e+00
*RC cpu0:dmem_addr\[2\] 0.000e+00
*DRIVER dcache0:raddr\[2\]
*CELL dcache
*C2_R1_C1 0.000e+00 0.000e+00 0.000e+00 
*LOADS
*RC dcache0:waddr\[2\] 0.000e+00
*RC cpu0:dmem_addr\[2\] 0.000e+00
*DRIVER cpu0:dmem_addr\[2\]
*CELL cpu
*C2_R1_C1 0.000e+00 0.000e+00 0.000e+00 
*LOADS
*RC dcache0:waddr\[2\] 0.000e+00
*RC dcache0:raddr\[2\] 0.000e+00
*END

*R_NET dmem_addr\[1\] 0.000e+00
*DRIVER dcache0:waddr\[1\]
*CELL dcache
*C2_R1_C1 0.000e+00 0.000e+00 0.000e+00 
*LOADS
*RC dcache0:raddr\[1\] 0.000e+00
*RC cpu0:dmem_addr\[1\] 0.000e+00
*DRIVER dcache0:raddr\[1\]
*CELL dcache
*C2_R1_C1 0.000e+00 0.000e+00 0.000e+00 
*LOADS
*RC dcache0:waddr\[1\] 0.000e+00
*RC cpu0:dmem_addr\[1\] 0.000e+00
*DRIVER cpu0:dmem_addr\[1\]
*CELL cpu
*C2_R1_C1 0.000e+00 0.000e+00 0.000e+00 
*LOADS
*RC dcache0:waddr\[1\] 0.000e+00
*RC dcache0:raddr\[1\] 0.000e+00
*END

*R_NET dmem_addr\[0\] 0.000e+00
*DRIVER dcache0:waddr\[0\]
*CELL dcache
*C2_R1_C1 0.000e+00 0.000e+00 0.000e+00 
*LOADS
*RC dcache0:raddr\[0\] 0.000e+00
*RC cpu0:dmem_addr\[0\] 0.000e+00
*DRIVER dcache0:raddr\[0\]
*CELL dcache
*C2_R1_C1 0.000e+00 0.000e+00 0.000e+00 
*LOADS
*RC dcache0:waddr\[0\] 0.000e+00
*RC cpu0:dmem_addr\[0\] 0.000e+00
*DRIVER cpu0:dmem_addr\[0\]
*CELL cpu
*C2_R1_C1 0.000e+00 0.000e+00 0.000e+00 
*LOADS
*RC dcache0:waddr\[0\] 0.000e+00
*RC dcache0:raddr\[0\] 0.000e+00
*END

*R_NET instruction_if\[31\] 0.000e+00
*DRIVER instruction_memory:data\[31\]
*CELL icache
*C2_R1_C1 0.000e+00 0.000e+00 0.000e+00 
*LOADS
*RC cpu0:instruction_if\[31\] 0.000e+00
*DRIVER cpu0:instruction_if\[31\]
*CELL cpu
*C2_R1_C1 0.000e+00 0.000e+00 0.000e+00 
*LOADS
*RC instruction_memory:data\[31\] 0.000e+00
*END

*R_NET instruction_if\[30\] 0.000e+00
*DRIVER instruction_memory:data\[30\]
*CELL icache
*C2_R1_C1 0.000e+00 0.000e+00 0.000e+00 
*LOADS
*RC cpu0:instruction_if\[30\] 0.000e+00
*DRIVER cpu0:instruction_if\[30\]
*CELL cpu
*C2_R1_C1 0.000e+00 0.000e+00 0.000e+00 
*LOADS
*RC instruction_memory:data\[30\] 0.000e+00
*END

*R_NET instruction_if\[29\] 0.000e+00
*DRIVER instruction_memory:data\[29\]
*CELL icache
*C2_R1_C1 0.000e+00 0.000e+00 0.000e+00 
*LOADS
*RC cpu0:instruction_if\[29\] 0.000e+00
*DRIVER cpu0:instruction_if\[29\]
*CELL cpu
*C2_R1_C1 0.000e+00 0.000e+00 0.000e+00 
*LOADS
*RC instruction_memory:data\[29\] 0.000e+00
*END

*R_NET instruction_if\[28\] 0.000e+00
*DRIVER instruction_memory:data\[28\]
*CELL icache
*C2_R1_C1 0.000e+00 0.000e+00 0.000e+00 
*LOADS
*RC cpu0:instruction_if\[28\] 0.000e+00
*DRIVER cpu0:instruction_if\[28\]
*CELL cpu
*C2_R1_C1 0.000e+00 0.000e+00 0.000e+00 
*LOADS
*RC instruction_memory:data\[28\] 0.000e+00
*END

*R_NET instruction_if\[27\] 0.000e+00
*DRIVER instruction_memory:data\[27\]
*CELL icache
*C2_R1_C1 0.000e+00 0.000e+00 0.000e+00 
*LOADS
*RC cpu0:instruction_if\[27\] 0.000e+00
*DRIVER cpu0:instruction_if\[27\]
*CELL cpu
*C2_R1_C1 0.000e+00 0.000e+00 0.000e+00 
*LOADS
*RC instruction_memory:data\[27\] 0.000e+00
*END

*R_NET instruction_if\[26\] 0.000e+00
*DRIVER instruction_memory:data\[26\]
*CELL icache
*C2_R1_C1 0.000e+00 0.000e+00 0.000e+00 
*LOADS
*RC cpu0:instruction_if\[26\] 0.000e+00
*DRIVER cpu0:instruction_if\[26\]
*CELL cpu
*C2_R1_C1 0.000e+00 0.000e+00 0.000e+00 
*LOADS
*RC instruction_memory:data\[26\] 0.000e+00
*END

*R_NET instruction_if\[25\] 0.000e+00
*DRIVER instruction_memory:data\[25\]
*CELL icache
*C2_R1_C1 0.000e+00 0.000e+00 0.000e+00 
*LOADS
*RC cpu0:instruction_if\[25\] 0.000e+00
*DRIVER cpu0:instruction_if\[25\]
*CELL cpu
*C2_R1_C1 0.000e+00 0.000e+00 0.000e+00 
*LOADS
*RC instruction_memory:data\[25\] 0.000e+00
*END

*R_NET instruction_if\[24\] 0.000e+00
*DRIVER instruction_memory:data\[24\]
*CELL icache
*C2_R1_C1 0.000e+00 0.000e+00 0.000e+00 
*LOADS
*RC cpu0:instruction_if\[24\] 0.000e+00
*DRIVER cpu0:instruction_if\[24\]
*CELL cpu
*C2_R1_C1 0.000e+00 0.000e+00 0.000e+00 
*LOADS
*RC instruction_memory:data\[24\] 0.000e+00
*END

*R_NET instruction_if\[23\] 0.000e+00
*DRIVER instruction_memory:data\[23\]
*CELL icache
*C2_R1_C1 0.000e+00 0.000e+00 0.000e+00 
*LOADS
*RC cpu0:instruction_if\[23\] 0.000e+00
*DRIVER cpu0:instruction_if\[23\]
*CELL cpu
*C2_R1_C1 0.000e+00 0.000e+00 0.000e+00 
*LOADS
*RC instruction_memory:data\[23\] 0.000e+00
*END

*R_NET instruction_if\[22\] 0.000e+00
*DRIVER instruction_memory:data\[22\]
*CELL icache
*C2_R1_C1 0.000e+00 0.000e+00 0.000e+00 
*LOADS
*RC cpu0:instruction_if\[22\] 0.000e+00
*DRIVER cpu0:instruction_if\[22\]
*CELL cpu
*C2_R1_C1 0.000e+00 0.000e+00 0.000e+00 
*LOADS
*RC instruction_memory:data\[22\] 0.000e+00
*END

*R_NET instruction_if\[21\] 0.000e+00
*DRIVER instruction_memory:data\[21\]
*CELL icache
*C2_R1_C1 0.000e+00 0.000e+00 0.000e+00 
*LOADS
*RC cpu0:instruction_if\[21\] 0.000e+00
*DRIVER cpu0:instruction_if\[21\]
*CELL cpu
*C2_R1_C1 0.000e+00 0.000e+00 0.000e+00 
*LOADS
*RC instruction_memory:data\[21\] 0.000e+00
*END

*R_NET instruction_if\[20\] 0.000e+00
*DRIVER instruction_memory:data\[20\]
*CELL icache
*C2_R1_C1 0.000e+00 0.000e+00 0.000e+00 
*LOADS
*RC cpu0:instruction_if\[20\] 0.000e+00
*DRIVER cpu0:instruction_if\[20\]
*CELL cpu
*C2_R1_C1 0.000e+00 0.000e+00 0.000e+00 
*LOADS
*RC instruction_memory:data\[20\] 0.000e+00
*END

*R_NET instruction_if\[19\] 0.000e+00
*DRIVER instruction_memory:data\[19\]
*CELL icache
*C2_R1_C1 0.000e+00 0.000e+00 0.000e+00 
*LOADS
*RC cpu0:instruction_if\[19\] 0.000e+00
*DRIVER cpu0:instruction_if\[19\]
*CELL cpu
*C2_R1_C1 0.000e+00 0.000e+00 0.000e+00 
*LOADS
*RC instruction_memory:data\[19\] 0.000e+00
*END

*R_NET instruction_if\[18\] 0.000e+00
*DRIVER instruction_memory:data\[18\]
*CELL icache
*C2_R1_C1 0.000e+00 0.000e+00 0.000e+00 
*LOADS
*RC cpu0:instruction_if\[18\] 0.000e+00
*DRIVER cpu0:instruction_if\[18\]
*CELL cpu
*C2_R1_C1 0.000e+00 0.000e+00 0.000e+00 
*LOADS
*RC instruction_memory:data\[18\] 0.000e+00
*END

*R_NET instruction_if\[17\] 0.000e+00
*DRIVER instruction_memory:data\[17\]
*CELL icache
*C2_R1_C1 0.000e+00 0.000e+00 0.000e+00 
*LOADS
*RC cpu0:instruction_if\[17\] 0.000e+00
*DRIVER cpu0:instruction_if\[17\]
*CELL cpu
*C2_R1_C1 0.000e+00 0.000e+00 0.000e+00 
*LOADS
*RC instruction_memory:data\[17\] 0.000e+00
*END

*R_NET instruction_if\[16\] 0.000e+00
*DRIVER instruction_memory:data\[16\]
*CELL icache
*C2_R1_C1 0.000e+00 0.000e+00 0.000e+00 
*LOADS
*RC cpu0:instruction_if\[16\] 0.000e+00
*DRIVER cpu0:instruction_if\[16\]
*CELL cpu
*C2_R1_C1 0.000e+00 0.000e+00 0.000e+00 
*LOADS
*RC instruction_memory:data\[16\] 0.000e+00
*END

*R_NET instruction_if\[15\] 0.000e+00
*DRIVER instruction_memory:data\[15\]
*CELL icache
*C2_R1_C1 0.000e+00 0.000e+00 0.000e+00 
*LOADS
*RC cpu0:instruction_if\[15\] 0.000e+00
*DRIVER cpu0:instruction_if\[15\]
*CELL cpu
*C2_R1_C1 0.000e+00 0.000e+00 0.000e+00 
*LOADS
*RC instruction_memory:data\[15\] 0.000e+00
*END

*R_NET instruction_if\[14\] 0.000e+00
*DRIVER instruction_memory:data\[14\]
*CELL icache
*C2_R1_C1 0.000e+00 0.000e+00 0.000e+00 
*LOADS
*RC cpu0:instruction_if\[14\] 0.000e+00
*DRIVER cpu0:instruction_if\[14\]
*CELL cpu
*C2_R1_C1 0.000e+00 0.000e+00 0.000e+00 
*LOADS
*RC instruction_memory:data\[14\] 0.000e+00
*END

*R_NET instruction_if\[13\] 0.000e+00
*DRIVER instruction_memory:data\[13\]
*CELL icache
*C2_R1_C1 0.000e+00 0.000e+00 0.000e+00 
*LOADS
*RC cpu0:instruction_if\[13\] 0.000e+00
*DRIVER cpu0:instruction_if\[13\]
*CELL cpu
*C2_R1_C1 0.000e+00 0.000e+00 0.000e+00 
*LOADS
*RC instruction_memory:data\[13\] 0.000e+00
*END

*R_NET instruction_if\[12\] 0.000e+00
*DRIVER instruction_memory:data\[12\]
*CELL icache
*C2_R1_C1 0.000e+00 0.000e+00 0.000e+00 
*LOADS
*RC cpu0:instruction_if\[12\] 0.000e+00
*DRIVER cpu0:instruction_if\[12\]
*CELL cpu
*C2_R1_C1 0.000e+00 0.000e+00 0.000e+00 
*LOADS
*RC instruction_memory:data\[12\] 0.000e+00
*END

*R_NET instruction_if\[11\] 0.000e+00
*DRIVER instruction_memory:data\[11\]
*CELL icache
*C2_R1_C1 0.000e+00 0.000e+00 0.000e+00 
*LOADS
*RC cpu0:instruction_if\[11\] 0.000e+00
*DRIVER cpu0:instruction_if\[11\]
*CELL cpu
*C2_R1_C1 0.000e+00 0.000e+00 0.000e+00 
*LOADS
*RC instruction_memory:data\[11\] 0.000e+00
*END

*R_NET instruction_if\[10\] 0.000e+00
*DRIVER instruction_memory:data\[10\]
*CELL icache
*C2_R1_C1 0.000e+00 0.000e+00 0.000e+00 
*LOADS
*RC cpu0:instruction_if\[10\] 0.000e+00
*DRIVER cpu0:instruction_if\[10\]
*CELL cpu
*C2_R1_C1 0.000e+00 0.000e+00 0.000e+00 
*LOADS
*RC instruction_memory:data\[10\] 0.000e+00
*END

*R_NET instruction_if\[9\] 0.000e+00
*DRIVER instruction_memory:data\[9\]
*CELL icache
*C2_R1_C1 0.000e+00 0.000e+00 0.000e+00 
*LOADS
*RC cpu0:instruction_if\[9\] 0.000e+00
*DRIVER cpu0:instruction_if\[9\]
*CELL cpu
*C2_R1_C1 0.000e+00 0.000e+00 0.000e+00 
*LOADS
*RC instruction_memory:data\[9\] 0.000e+00
*END
